LTspice 24.0.12 for Windows
Circuit: * C:\Users\Moon\Documents\Github\xzhu664\ec209-project-2024_team_08\Basic\FinalImplementation\Hardware\LTspice.asc
Start Time: Thu Sep 19 06:51:58 2024
c1: both pins shorted together -- ignoring.
c3: both pins shorted together -- ignoring.
solver = Normal
Maximum thread count: 16
tnom = 27
temp = 27
method = modified trap
WARNING: Node 5V is floating.

Early termination of direct N-R iteration.
Direct Newton iteration failed to find .op point.  (Use ".option noopiter" to skip.)
Starting Gmin stepping
Gmin = 10
vernier = 0.5
vernier = 0.25
vernier = 0.125
vernier = 0.0625
Gmin = 8.61953
vernier = 0.03125
vernier = 0.015625
vernier = 0.0078125
vernier = 0.00390625
Gmin = 8.47038
vernier = 0.00195312
vernier = 0.000976562
vernier = 0.000488281
Gmin = 0
Gmin stepping succeeded in finding the operating point.

Heightened Def Con from 0.00264556 to 0.00264556
Heightened Def Con from 0.00264556 +++to 0.00264557
Heightened Def Con from 0.00264557 +to 0.00264557
Heightened Def Con from 0.00264557 +to 0.00264557
Heightened Def Con from 0.00264557 to 0.00264557
Heightened Def Con from 0.00264557 +to 0.00264557
Heightened Def Con from 0.00264557 +to 0.00264557
Heightened Def Con from 0.00264557 +to 0.00264557
Heightened Def Con from 0.00264557 to 0.00264557
Heightened Def Con from 0.00264557 to 0.00264557
Heightened Def Con from 0.00264557 +to 0.00264558
Heightened Def Con from 0.00264558 +to 0.00264558
Heightened Def Con from 0.00264558 to 0.00264558
Heightened Def Con from 0.00264558 to 0.00264558
Heightened Def Con from 0.00264558 +to 0.00264558
Heightened Def Con from 0.00264558 ++++++++++++++++++to 0.00264558
Heightened Def Con from 0.00264558 ++++++++++to 0.00264558
Heightened Def Con from 0.00264558 ++++++to 0.00264558
Heightened Def Con from 0.00264558 to 0.00264558
Heightened Def Con from 0.00264558 ++to 0.00264558
Heightened Def Con from 0.00264558 ++to 0.00264558
Heightened Def Con from 0.00264558 to 0.00264558
Heightened Def Con from 0.00264558 +to 0.00264558
Heightened Def Con from 0.00264558 to 0.00264558
Heightened Def Con from 0.00264558 +to 0.00264558
Heightened Def Con from 0.00264558 +to 0.00264559
Heightened Def Con from 0.00264559 +to 0.00264559
Heightened Def Con from 0.00264559 to 0.00264559
Heightened Def Con from 0.00264559 +to 0.00264559
Heightened Def Con from 0.00264559 to 0.00264559
Heightened Def Con from 0.00264559 to 0.00264559
Heightened Def Con from 0.00264559 +to 0.00264559
Heightened Def Con from 0.00264559 +to 0.0026456
Heightened Def Con from 0.0026456 to 0.0026456
Heightened Def Con from 0.0026456 ++to 0.0026456
Heightened Def Con from 0.0026456 +to 0.0026456
Heightened Def Con from 0.0026456 to 0.0026456
Heightened Def Con from 0.0026456 to 0.0026456
Heightened Def Con from 0.0026456 +++to 0.0026456
Heightened Def Con from 0.0026456 +to 0.0026456
Heightened Def Con from 0.0026456 ++to 0.00264561
Heightened Def Con from 0.00264561 to 0.00264561
Heightened Def Con from 0.00264561 to 0.00264561
Heightened Def Con from 0.00264561 to 0.00264561
Heightened Def Con from 0.00264561 to 0.00264561
Heightened Def Con from 0.00264561 +to 0.00264561
Heightened Def Con from 0.00264561 to 0.00264561
Heightened Def Con from 0.00264561 +to 0.00264561
Heightened Def Con from 0.00264561 to 0.00264562
Heightened Def Con from 0.00264562 to 0.00264562
Heightened Def Con from 0.00264562 to 0.00264562
Heightened Def Con from 0.00264562 ++to 0.00264562
Heightened Def Con from 0.00264562 +to 0.00264562
Heightened Def Con from 0.00264562 +to 0.00264562
Heightened Def Con from 0.00264562 to 0.00264562
Heightened Def Con from 0.00264562 to 0.00264562
Heightened Def Con from 0.00264562 to 0.00264563
Heightened Def Con from 0.00264563 ++++++++++++to 0.00264563
Heightened Def Con from 0.00264563 ++++++++++to 0.00264563
Heightened Def Con from 0.00264563 ++++++to 0.00264563
Heightened Def Con from 0.00264563 ++to 0.00264563
Heightened Def Con from 0.00264563 +to 0.00264563
Heightened Def Con from 0.00264563 to 0.00264563
Heightened Def Con from 0.00264563 to 0.00264563
Heightened Def Con from 0.00264563 +to 0.00264563
Heightened Def Con from 0.00264563 to 0.00264563
Heightened Def Con from 0.00264563 ++to 0.00264563
Heightened Def Con from 0.00264563 +to 0.00264563
Heightened Def Con from 0.00264563 +to 0.00264563
Heightened Def Con from 0.00264563 to 0.00264564
Heightened Def Con from 0.00264564 +to 0.00264564
Heightened Def Con from 0.00264564 +to 0.00264564
Heightened Def Con from 0.00264564 to 0.00264564
Heightened Def Con from 0.00264564 to 0.00264564
Heightened Def Con from 0.00264564 to 0.00264564
Heightened Def Con from 0.00264564 to 0.00264564
Heightened Def Con from 0.00264564 to 0.00264564
Heightened Def Con from 0.00264564 to 0.00264565
Heightened Def Con from 0.00264565 to 0.00264565
Heightened Def Con from 0.00264565 +to 0.00264565
Heightened Def Con from 0.00264565 to 0.00264565
Heightened Def Con from 0.00264565 to 0.00264565
Heightened Def Con from 0.00264565 +to 0.00264565
Heightened Def Con from 0.00264565 to 0.00264565
Heightened Def Con from 0.00264565 +to 0.00264565
Heightened Def Con from 0.00264565 to 0.00264566
Heightened Def Con from 0.00264566 to 0.00264566
Heightened Def Con from 0.00264566 to 0.00264566
Heightened Def Con from 0.00264566 +to 0.00264566
Heightened Def Con from 0.00264566 +++++to 0.00264566
Heightened Def Con from 0.00264566 +to 0.00264566
Heightened Def Con from 0.00264566 ++to 0.00264566
Heightened Def Con from 0.00264566 to 0.00264566
Heightened Def Con from 0.00264566 to 0.00264566
Heightened Def Con from 0.00264566 +to 0.00264566
Heightened Def Con from 0.00264566 +to 0.00264566
Heightened Def Con from 0.00264567 +to 0.00264567
Heightened Def Con from 0.00264567 to 0.00264567
Heightened Def Con from 0.00264567 to 0.00264567
Heightened Def Con from 0.00264568 to 0.00264568
Heightened Def Con from 0.00264568 to 0.00264568
Heightened Def Con from 0.00264568 +to 0.00264568
Heightened Def Con from 0.00264568 ++to 0.00264568
Heightened Def Con from 0.00264568 to 0.00264568
Heightened Def Con from 0.00264568 +to 0.00264568
Heightened Def Con from 0.00264568 +to 0.00264568
Heightened Def Con from 0.00264568 ++to 0.00264568
Heightened Def Con from 0.00264568 +to 0.00264568
Heightened Def Con from 0.00264568 ++to 0.00264568
Heightened Def Con from 0.00264568 to 0.00264569
Heightened Def Con from 0.00264569 to 0.00264569
Heightened Def Con from 0.00264569 to 0.00264569
Heightened Def Con from 0.00264569 to 0.00264569
Heightened Def Con from 0.00264569 to 0.00264569
Heightened Def Con from 0.00264569 ++to 0.00264569
Heightened Def Con from 0.00264569 to 0.00264569
Heightened Def Con from 0.00264569 to 0.00264569
Heightened Def Con from 0.00264569 to 0.00264569
Heightened Def Con from 0.00264569 to 0.00264569
Heightened Def Con from 0.00264569 +to 0.00264569
Heightened Def Con from 0.00264569 +to 0.00264569
Heightened Def Con from 0.00264569 to 0.00264569
Heightened Def Con from 0.00264569 +++++++++++++++++++++++to 0.00264569
Heightened Def Con from 0.00264569 +++++++++++++++++++to 0.0026457
Heightened Def Con from 0.0026457 +++++++to 0.0026457
Heightened Def Con from 0.0026457 +to 0.0026457
Heightened Def Con from 0.0026457 ++to 0.0026457
Heightened Def Con from 0.0026457 +++++++++++++++to 0.0026457
Heightened Def Con from 0.0026457 ++++++++to 0.0026457
Heightened Def Con from 0.0026457 +to 0.0026457
Heightened Def Con from 0.0026457 to 0.0026457
Heightened Def Con from 0.0026457 to 0.0026457
Heightened Def Con from 0.0026457 +to 0.00264571
Heightened Def Con from 0.00264571 +to 0.00264571
Heightened Def Con from 0.00264571 +to 0.00264571
Heightened Def Con from 0.00264571 +to 0.00264571
Heightened Def Con from 0.00264571 to 0.00264571
Heightened Def Con from 0.00264571 ++to 0.00264571
Heightened Def Con from 0.00264571 +to 0.00264571
Heightened Def Con from 0.00264571 +to 0.00264571
Heightened Def Con from 0.00264571 +to 0.00264571
Heightened Def Con from 0.00264571 to 0.00264571
Heightened Def Con from 0.00264571 +++++++++++++++++to 0.00264571
Heightened Def Con from 0.00264571 +++++to 0.00264571
Heightened Def Con from 0.00264571 +to 0.00264572
Heightened Def Con from 0.00264572 +to 0.00264572
Heightened Def Con from 0.00264572 to 0.00264572
Heightened Def Con from 0.00264572 ++to 0.00264572
Heightened Def Con from 0.00264572 ++to 0.00264572
Heightened Def Con from 0.00264572 ++to 0.00264572
Heightened Def Con from 0.00264572 +to 0.00264572
Heightened Def Con from 0.00264573 to 0.00264573
Heightened Def Con from 0.00264573 to 0.00264573
Heightened Def Con from 0.00264573 to 0.00264573
Heightened Def Con from 0.00264573 +++to 0.00264573
Heightened Def Con from 0.00264573 to 0.00264573
Heightened Def Con from 0.00264573 to 0.00264573
Heightened Def Con from 0.00264573 +to 0.00264573
Heightened Def Con from 0.00264573 to 0.00264573
Heightened Def Con from 0.00264573 +to 0.00264573
Heightened Def Con from 0.00264573 to 0.00264574
Heightened Def Con from 0.00264574 to 0.00264574
Heightened Def Con from 0.00264574 to 0.00264574
Heightened Def Con from 0.00264574 to 0.00264574
Heightened Def Con from 0.00264574 +to 0.00264574
Heightened Def Con from 0.00264574 +to 0.00264574
Heightened Def Con from 0.00264574 to 0.00264574
Heightened Def Con from 0.00264574 ++to 0.00264574
Heightened Def Con from 0.00264574 to 0.00264575
Heightened Def Con from 0.00264575 to 0.00264575
Heightened Def Con from 0.00264575 to 0.00264575
Heightened Def Con from 0.00264575 to 0.00264575
Heightened Def Con from 0.00264575 +to 0.00264575
Heightened Def Con from 0.00264575 +to 0.00264575
Heightened Def Con from 0.00264575 +to 0.00264575
Heightened Def Con from 0.00264575 to 0.00264575
Heightened Def Con from 0.00264575 to 0.00264575
Heightened Def Con from 0.00264575 to 0.00264575
Heightened Def Con from 0.00264575 to 0.00264576
Heightened Def Con from 0.00264576 to 0.00264576
Heightened Def Con from 0.00264576 to 0.00264576
Heightened Def Con from 0.00264576 to 0.00264576
Heightened Def Con from 0.00264576 to 0.00264576
Heightened Def Con from 0.00264576 to 0.00264576
Heightened Def Con from 0.00264576 to 0.00264576
Heightened Def Con from 0.00264576 to 0.00264576
Heightened Def Con from 0.00264576 to 0.00264577
Heightened Def Con from 0.00264577 to 0.00264577
Heightened Def Con from 0.00264577 to 0.00264577
Heightened Def Con from 0.00264577 +to 0.00264578
Heightened Def Con from 0.00264578 to 0.00264578
Heightened Def Con from 0.00264578 to 0.00264578
Heightened Def Con from 0.00264578 to 0.00264578
Heightened Def Con from 0.00264578 to 0.00264578
Heightened Def Con from 0.00264578 +to 0.00264578
Heightened Def Con from 0.00264578 to 0.00264578
Heightened Def Con from 0.00264578 ++++++++++++++++++++to 0.00264578
Heightened Def Con from 0.00264578 +++++++to 0.00264578
Heightened Def Con from 0.00264578 to 0.00264579
Heightened Def Con from 0.00264579 to 0.00264579
Heightened Def Con from 0.00264579 to 0.00264579
Heightened Def Con from 0.00264579 +to 0.00264579
Heightened Def Con from 0.00264579 to 0.00264579
Heightened Def Con from 0.00264579 to 0.00264579
Heightened Def Con from 0.00264579 +to 0.00264579
Heightened Def Con from 0.00264579 to 0.00264579
Heightened Def Con from 0.00264579 to 0.0026458
Heightened Def Con from 0.0026458 +to 0.0026458
Heightened Def Con from 0.0026458 to 0.0026458
Heightened Def Con from 0.0026458 +to 0.0026458
Heightened Def Con from 0.0026458 +to 0.0026458
Heightened Def Con from 0.0026458 to 0.0026458
Heightened Def Con from 0.0026458 to 0.0026458
Heightened Def Con from 0.0026458 +to 0.0026458
Heightened Def Con from 0.0026458 to 0.00264581
Heightened Def Con from 0.00264581 to 0.00264581
Heightened Def Con from 0.00264581 +++++++++++++++++++++to 0.00264581
Heightened Def Con from 0.00264581 ++++++++to 0.00264581
Heightened Def Con from 0.00264581 ++++to 0.00264581
Heightened Def Con from 0.00264581 to 0.00264581
Heightened Def Con from 0.00264581 to 0.00264581
Heightened Def Con from 0.00264581 to 0.00264581
Heightened Def Con from 0.00264581 +to 0.00264581
Heightened Def Con from 0.00264581 to 0.00264581
Heightened Def Con from 0.00264581 +++++++++++++++++++++++to 0.00264582
Heightened Def Con from 0.00264582 +++++++++++++++++++to 0.00264582
Heightened Def Con from 0.00264582 ++++++to 0.00264582
Heightened Def Con from 0.00264582 +to 0.00264582
Heightened Def Con from 0.00264582 +to 0.00264582
Heightened Def Con from 0.00264582 ++to 0.00264582
Heightened Def Con from 0.00264582 to 0.00264583
Heightened Def Con from 0.00264583 ++to 0.00264583
Heightened Def Con from 0.00264583 +to 0.00264583
Heightened Def Con from 0.00264583 to 0.00264583
Heightened Def Con from 0.00264583 +to 0.00264583
Heightened Def Con from 0.00264583 +to 0.00264584
Heightened Def Con from 0.00264584 to 0.00264584
Heightened Def Con from 0.00264584 +++++to 0.00264584
Heightened Def Con from 0.00264584 ++to 0.00264584
Heightened Def Con from 0.00264584 +to 0.00264584
Heightened Def Con from 0.00264584 +++to 0.00264584
Heightened Def Con from 0.00264584 to 0.00264584
Heightened Def Con from 0.00264584 to 0.00264584
Heightened Def Con from 0.00264584 to 0.00264584
Heightened Def Con from 0.00264584 to 0.00264585
Heightened Def Con from 0.00264585 to 0.00264585
Heightened Def Con from 0.00264585 to 0.00264585
Heightened Def Con from 0.00264585 to 0.00264585
Heightened Def Con from 0.00264585 to 0.00264585
Heightened Def Con from 0.00264586 +to 0.00264586
Heightened Def Con from 0.00264586 to 0.00264586
Heightened Def Con from 0.00264586 to 0.00264586
Heightened Def Con from 0.00264586 to 0.00264586
Heightened Def Con from 0.00264586 to 0.00264586
Heightened Def Con from 0.00264586 to 0.00264586
Heightened Def Con from 0.00264586 +to 0.00264586
Heightened Def Con from 0.00264586 +to 0.00264587
Heightened Def Con from 0.00264587 to 0.00264587
Heightened Def Con from 0.00264587 +to 0.00264587
Heightened Def Con from 0.00264587 +to 0.00264587
Heightened Def Con from 0.00264587 +to 0.00264587
Heightened Def Con from 0.00264587 to 0.00264587
Heightened Def Con from 0.00264587 to 0.00264587
Heightened Def Con from 0.00264587 +to 0.00264587
Heightened Def Con from 0.00264587 ++to 0.00264587
Heightened Def Con from 0.00264587 to 0.00264588
Heightened Def Con from 0.00264588 to 0.00264588
Heightened Def Con from 0.00264588 +++++to 0.00264588
Heightened Def Con from 0.00264588 +++to 0.00264588
Heightened Def Con from 0.00264588 to 0.00264588
Heightened Def Con from 0.00264588 to 0.00264588
Heightened Def Con from 0.00264588 ++++++++++++++++++to 0.00264588
Heightened Def Con from 0.00264588 +++++++to 0.00264588
Heightened Def Con from 0.00264588 to 0.00264588
Heightened Def Con from 0.00264588 +to 0.00264588
Heightened Def Con from 0.00264588 +to 0.00264588
Heightened Def Con from 0.00264588 +to 0.00264588
Heightened Def Con from 0.00264588 to 0.00264589
Heightened Def Con from 0.00264589 +to 0.00264589
Heightened Def Con from 0.00264589 to 0.00264589
Heightened Def Con from 0.00264589 to 0.00264589
Heightened Def Con from 0.00264589 +to 0.00264589
Heightened Def Con from 0.00264589 to 0.00264589
Heightened Def Con from 0.00264589 to 0.00264589
Heightened Def Con from 0.0026459 to 0.0026459
Heightened Def Con from 0.0026459 to 0.0026459
Heightened Def Con from 0.0026459 +to 0.0026459
Heightened Def Con from 0.0026459 to 0.0026459
Heightened Def Con from 0.0026459 +to 0.0026459
Heightened Def Con from 0.0026459 +to 0.0026459
Heightened Def Con from 0.0026459 +to 0.0026459
Heightened Def Con from 0.0026459 to 0.0026459
Heightened Def Con from 0.0026459 ++++to 0.0026459
Heightened Def Con from 0.0026459 ++++++++++++++++++to 0.0026459
Heightened Def Con from 0.0026459 ++++++to 0.00264591
Heightened Def Con from 0.00264591 +to 0.00264591
Heightened Def Con from 0.00264591 +to 0.00264591
Heightened Def Con from 0.00264591 +to 0.00264591
Heightened Def Con from 0.00264591 ++to 0.00264591
Heightened Def Con from 0.00264591 to 0.00264591
Heightened Def Con from 0.00264592 to 0.00264592
Heightened Def Con from 0.00264592 to 0.00264592
Heightened Def Con from 0.00264592 to 0.00264592
Heightened Def Con from 0.00264592 ++++to 0.00264592
Heightened Def Con from 0.00264592 +++++++++++++++++to 0.00264592
Heightened Def Con from 0.00264592 +++++++++++++++++to 0.00264592
Heightened Def Con from 0.00264592 +++++++++to 0.00264592
Heightened Def Con from 0.00264592 ++++++++++++to 0.00264592
Heightened Def Con from 0.00264592 +++to 0.00264592
Heightened Def Con from 0.00264592 +++to 0.00264592
Heightened Def Con from 0.00264592 ++to 0.00264592
Heightened Def Con from 0.00264592 +to 0.00264592
Heightened Def Con from 0.00264592 +to 0.00264592
Heightened Def Con from 0.00264592 +to 0.00264592
Heightened Def Con from 0.00264592 +to 0.00264592
Heightened Def Con from 0.00264592 to 0.00264592
Heightened Def Con from 0.00264593 +++to 0.00264593
Heightened Def Con from 0.00264593 ++to 0.00264593
Heightened Def Con from 0.00264593 +to 0.00264593
Heightened Def Con from 0.00264593 +to 0.00264593
Heightened Def Con from 0.00264593 to 0.00264593
Heightened Def Con from 0.00264593 to 0.00264594
Heightened Def Con from 0.00264594 +to 0.00264594
Heightened Def Con from 0.00264594 to 0.00264594
Heightened Def Con from 0.00264594 +to 0.00264594
Heightened Def Con from 0.00264594 to 0.00264594
Heightened Def Con from 0.00264594 to 0.00264594
Heightened Def Con from 0.00264594 +to 0.00264594
Heightened Def Con from 0.00264594 +to 0.00264594
Heightened Def Con from 0.00264594 ++to 0.00264594
Heightened Def Con from 0.00264594 +to 0.00264594
Heightened Def Con from 0.00264595 to 0.00264595
Heightened Def Con from 0.00264595 to 0.00264595
Heightened Def Con from 0.00264595 +to 0.00264595
Heightened Def Con from 0.00264595 +to 0.00264595
Heightened Def Con from 0.00264595 to 0.00264595
Heightened Def Con from 0.00264595 to 0.00264595
Heightened Def Con from 0.00264595 +to 0.00264595
Heightened Def Con from 0.00264595 to 0.00264596
Heightened Def Con from 0.00264596 to 0.00264596
Heightened Def Con from 0.00264596 +to 0.00264596
Heightened Def Con from 0.00264596 +++to 0.00264596
Heightened Def Con from 0.00264596 +to 0.00264596
Heightened Def Con from 0.00264596 to 0.00264596
Heightened Def Con from 0.00264596 +to 0.00264596
Heightened Def Con from 0.00264596 +to 0.00264596
Heightened Def Con from 0.00264596 ++to 0.00264597
Heightened Def Con from 0.00264597 +to 0.00264597
Heightened Def Con from 0.00264597 to 0.00264597
Heightened Def Con from 0.00264597 to 0.00264597
Heightened Def Con from 0.00264597 to 0.00264597
Heightened Def Con from 0.00264597 to 0.00264597
Heightened Def Con from 0.00264597 ++to 0.00264597
Heightened Def Con from 0.00264597 to 0.00264597
Heightened Def Con from 0.00264597 to 0.00264597
Heightened Def Con from 0.00264597 +to 0.00264597
Heightened Def Con from 0.00264597 +++++++++++++++++++++++to 0.00264597
Heightened Def Con from 0.00264597 +++++++++++++++++++to 0.00264598
Heightened Def Con from 0.00264598 ++++++to 0.00264598
Heightened Def Con from 0.00264598 +to 0.00264598
Heightened Def Con from 0.00264598 +to 0.00264598
Heightened Def Con from 0.00264598 to 0.00264598
Heightened Def Con from 0.00264598 +++to 0.00264598
Heightened Def Con from 0.00264598 +++to 0.00264598
Heightened Def Con from 0.00264598 to 0.00264598
Heightened Def Con from 0.00264598 +to 0.00264599
Heightened Def Con from 0.00264599 to 0.00264599
Heightened Def Con from 0.00264599 to 0.00264599
Heightened Def Con from 0.002646 to 0.002646
Heightened Def Con from 0.002646 ++++++++++++++++++++++to 0.002646
Heightened Def Con from 0.002646 +++++++++++to 0.002646
Heightened Def Con from 0.002646 +to 0.002646
Heightened Def Con from 0.002646 to 0.002646
Heightened Def Con from 0.002646 to 0.002646
Heightened Def Con from 0.002646 +to 0.002646
Heightened Def Con from 0.002646 to 0.002646
Heightened Def Con from 0.002646 to 0.00264601
Heightened Def Con from 0.00264601 ++to 0.00264601
Heightened Def Con from 0.00264601 +to 0.00264601
Heightened Def Con from 0.00264601 to 0.00264601
Heightened Def Con from 0.00264601 +to 0.00264601
Heightened Def Con from 0.00264601 +to 0.00264601
Heightened Def Con from 0.00264601 +++++++++++++++to 0.00264601
Heightened Def Con from 0.00264601 ++++to 0.00264601
Heightened Def Con from 0.00264601 +to 0.00264601
Heightened Def Con from 0.00264601 +to 0.00264601
Heightened Def Con from 0.00264601 to 0.00264601
Heightened Def Con from 0.00264601 to 0.00264602
Heightened Def Con from 0.00264602 +to 0.00264602
Heightened Def Con from 0.00264602 to 0.00264602
Heightened Def Con from 0.00264602 +to 0.00264602
Heightened Def Con from 0.00264602 to 0.00264602
Heightened Def Con from 0.00264602 +to 0.00264602
Heightened Def Con from 0.00264602 +to 0.00264602
Heightened Def Con from 0.00264602 +to 0.00264602
Heightened Def Con from 0.00264602 to 0.00264603
Heightened Def Con from 0.00264603 ++to 0.00264603
Heightened Def Con from 0.00264603 ++to 0.00264603
Heightened Def Con from 0.00264603 to 0.00264603
Heightened Def Con from 0.00264603 ++to 0.00264603
Heightened Def Con from 0.00264603 +to 0.00264604
Heightened Def Con from 0.00264604 +to 0.00264604
Heightened Def Con from 0.00264604 +to 0.00264604
Heightened Def Con from 0.00264604 to 0.00264604
Heightened Def Con from 0.00264604 to 0.00264604
Heightened Def Con from 0.00264604 to 0.00264604
Heightened Def Con from 0.00264604 ++to 0.00264605
Heightened Def Con from 0.00264605 to 0.00264605
Heightened Def Con from 0.00264605 to 0.00264605
Heightened Def Con from 0.00264605 to 0.00264605
Heightened Def Con from 0.00264605 to 0.00264605
Heightened Def Con from 0.00264605 +to 0.00264605
Heightened Def Con from 0.00264605 to 0.00264605
Heightened Def Con from 0.00264605 +to 0.00264605
Heightened Def Con from 0.00264605 +to 0.00264606
Heightened Def Con from 0.00264606 to 0.00264606
Heightened Def Con from 0.00264606 +to 0.00264606
Heightened Def Con from 0.00264606 to 0.00264606
Heightened Def Con from 0.00264606 +to 0.00264606
Heightened Def Con from 0.00264606 to 0.00264606
Heightened Def Con from 0.00264606 +to 0.00264606
Heightened Def Con from 0.00264606 +to 0.00264606
Heightened Def Con from 0.00264607 to 0.00264607
Heightened Def Con from 0.00264607 +to 0.00264607
Heightened Def Con from 0.00264607 ++to 0.00264607
Heightened Def Con from 0.00264607 to 0.00264607
Heightened Def Con from 0.00264607 to 0.00264607
Heightened Def Con from 0.00264607 +to 0.00264607
Heightened Def Con from 0.00264607 +to 0.00264607
Heightened Def Con from 0.00264607 to 0.00264607
Heightened Def Con from 0.00264607 to 0.00264607
Heightened Def Con from 0.00264607 +++++++++++++++++++++++to 0.00264608
Heightened Def Con from 0.00264608 +++++++++++++++++++to 0.00264608
Heightened Def Con from 0.00264608 ++++++to 0.00264608
Heightened Def Con from 0.00264608 +to 0.00264608
Heightened Def Con from 0.00264608 +to 0.00264608
Heightened Def Con from 0.00264608 to 0.00264608
Heightened Def Con from 0.00264608 +to 0.00264609
Heightened Def Con from 0.00264609 to 0.00264609
Heightened Def Con from 0.00264609 to 0.00264609
Heightened Def Con from 0.00264609 to 0.00264609
Heightened Def Con from 0.00264609 +to 0.00264609
Heightened Def Con from 0.00264609 to 0.00264609
Heightened Def Con from 0.00264609 ++to 0.0026461
Heightened Def Con from 0.0026461 to 0.0026461
Heightened Def Con from 0.0026461 +to 0.0026461
Heightened Def Con from 0.0026461 +to 0.0026461
Heightened Def Con from 0.0026461 to 0.0026461
Heightened Def Con from 0.0026461 to 0.0026461
Heightened Def Con from 0.0026461 +to 0.0026461
Heightened Def Con from 0.0026461 to 0.00264611
Heightened Def Con from 0.00264611 +to 0.00264611
Heightened Def Con from 0.00264611 +to 0.00264611
Heightened Def Con from 0.00264611 +to 0.00264611
Heightened Def Con from 0.00264611 +to 0.00264611
Heightened Def Con from 0.00264611 +to 0.00264611
Heightened Def Con from 0.00264611 to 0.00264611
Heightened Def Con from 0.00264611 ++to 0.00264611
Heightened Def Con from 0.00264611 +to 0.00264611
Heightened Def Con from 0.00264611 to 0.00264612
Heightened Def Con from 0.00264612 +to 0.00264612
Heightened Def Con from 0.00264612 +to 0.00264612
Heightened Def Con from 0.00264612 +to 0.00264612
Heightened Def Con from 0.00264612 to 0.00264612
Heightened Def Con from 0.00264612 +to 0.00264612
Heightened Def Con from 0.00264612 to 0.00264612
Heightened Def Con from 0.00264612 to 0.00264613
Heightened Def Con from 0.00264613 to 0.00264613
Heightened Def Con from 0.00264613 to 0.00264613
Heightened Def Con from 0.00264613 to 0.00264613
Heightened Def Con from 0.00264613 to 0.00264613
Heightened Def Con from 0.00264613 to 0.00264613
Heightened Def Con from 0.00264613 to 0.00264614
Heightened Def Con from 0.00264614 to 0.00264614
Heightened Def Con from 0.00264614 to 0.00264614
Heightened Def Con from 0.00264614 +to 0.00264614
Heightened Def Con from 0.00264614 ++to 0.00264614
Heightened Def Con from 0.00264614 ++to 0.00264614
Heightened Def Con from 0.00264614 to 0.00264614
Heightened Def Con from 0.00264614 +++to 0.00264614
Heightened Def Con from 0.00264614 to 0.00264614
Heightened Def Con from 0.00264614 to 0.00264614
Heightened Def Con from 0.00264615 ++to 0.00264615
Heightened Def Con from 0.00264615 ++to 0.00264615
Heightened Def Con from 0.00264615 +to 0.00264615
Heightened Def Con from 0.00264615 to 0.00264615
Heightened Def Con from 0.00264615 +to 0.00264615
Heightened Def Con from 0.00264615 +to 0.00264615
Heightened Def Con from 0.00264615 +++++++++++++++++++++to 0.00264615
Heightened Def Con from 0.00264615 ++++++++to 0.00264615
Heightened Def Con from 0.00264615 +to 0.00264615
Heightened Def Con from 0.00264615 +to 0.00264616
Heightened Def Con from 0.00264616 to 0.00264616
Heightened Def Con from 0.00264616 +to 0.00264616
Heightened Def Con from 0.00264616 to 0.00264616
Heightened Def Con from 0.00264616 ++to 0.00264616
Heightened Def Con from 0.00264616 +to 0.00264616
Heightened Def Con from 0.00264616 to 0.00264616
Heightened Def Con from 0.00264616 to 0.00264616
Heightened Def Con from 0.00264616 ++to 0.00264617
Heightened Def Con from 0.00264617 +to 0.00264617
Heightened Def Con from 0.00264617 ++++to 0.00264617
Heightened Def Con from 0.00264617 ++++++++++++++++++++to 0.00264617
Heightened Def Con from 0.00264617 ++++++++++to 0.00264617
Heightened Def Con from 0.00264617 ++to 0.00264617
Heightened Def Con from 0.00264617 to 0.00264617
Heightened Def Con from 0.00264617 ++to 0.00264617
Heightened Def Con from 0.00264617 ++++++++++++to 0.00264617
Heightened Def Con from 0.00264617 +++to 0.00264617
Heightened Def Con from 0.00264617 ++++++++++++++++++++++++to 0.00264617
Heightened Def Con from 0.00264617 ++++++++++++++++++++to 0.00264617
Heightened Def Con from 0.00264617 +++++++to 0.00264617
Heightened Def Con from 0.00264617 to 0.00264618
Heightened Def Con from 0.00264618 ++to 0.00264618
Heightened Def Con from 0.00264618 to 0.00264618
Heightened Def Con from 0.00264618 to 0.00264618
Heightened Def Con from 0.00264618 to 0.00264618
Heightened Def Con from 0.00264618 to 0.00264618
Heightened Def Con from 0.00264618 +to 0.00264618
Heightened Def Con from 0.00264618 to 0.00264618
Heightened Def Con from 0.00264618 to 0.00264618
Heightened Def Con from 0.00264618 to 0.00264619
Heightened Def Con from 0.00264619 to 0.00264619
Heightened Def Con from 0.00264619 to 0.00264619
Heightened Def Con from 0.00264619 ++++to 0.00264619
Heightened Def Con from 0.00264619 +++to 0.00264619
Heightened Def Con from 0.00264619 to 0.00264619
Heightened Def Con from 0.00264619 ++to 0.00264619
Heightened Def Con from 0.00264619 to 0.00264619
Heightened Def Con from 0.00264619 +++++++++++++++to 0.00264619
Heightened Def Con from 0.00264619 ++++++to 0.00264619
Heightened Def Con from 0.00264619 +to 0.00264619
Heightened Def Con from 0.00264619 +to 0.0026462
Heightened Def Con from 0.0026462 to 0.0026462
Heightened Def Con from 0.0026462 to 0.0026462
Heightened Def Con from 0.0026462 ++to 0.0026462
Heightened Def Con from 0.0026462 +to 0.0026462
Heightened Def Con from 0.0026462 to 0.0026462
Heightened Def Con from 0.0026462 +to 0.0026462
Heightened Def Con from 0.0026462 ++to 0.0026462
Heightened Def Con from 0.0026462 to 0.0026462
Heightened Def Con from 0.0026462 ++++to 0.0026462
Heightened Def Con from 0.0026462 +++++++++++++++++++++++to 0.0026462
Heightened Def Con from 0.0026462 ++++++++++++++++++++++to 0.00264621
Heightened Def Con from 0.00264621 ++++++++to 0.00264621
Heightened Def Con from 0.00264621 +++to 0.00264621
Heightened Def Con from 0.00264621 to 0.00264621
Heightened Def Con from 0.00264621 to 0.00264621
Heightened Def Con from 0.00264621 +to 0.00264621
Heightened Def Con from 0.00264621 to 0.00264621
Heightened Def Con from 0.00264621 ++to 0.00264621
Heightened Def Con from 0.00264621 to 0.00264621
Heightened Def Con from 0.00264621 +to 0.00264621
Heightened Def Con from 0.00264621 to 0.00264622
Heightened Def Con from 0.00264622 +to 0.00264622
Heightened Def Con from 0.00264622 to 0.00264622
Heightened Def Con from 0.00264622 ++to 0.00264622
Heightened Def Con from 0.00264622 to 0.00264622
Heightened Def Con from 0.00264622 to 0.00264622
Heightened Def Con from 0.00264622 +++++++++++++++++++++++to 0.00264622
Heightened Def Con from 0.00264622 +++++++++++++++++++to 0.00264622
Heightened Def Con from 0.00264622 ++++++to 0.00264622
Heightened Def Con from 0.00264622 ++to 0.00264622
Heightened Def Con from 0.00264622 to 0.00264622
Heightened Def Con from 0.00264622 +to 0.00264622
Heightened Def Con from 0.00264622 to 0.00264623
Heightened Def Con from 0.00264623 to 0.00264623
Heightened Def Con from 0.00264623 +to 0.00264623
Heightened Def Con from 0.00264623 +to 0.00264623
Heightened Def Con from 0.00264623 +to 0.00264623
Heightened Def Con from 0.00264623 ++to 0.00264623
Heightened Def Con from 0.00264623 +to 0.00264623
Heightened Def Con from 0.00264623 +to 0.00264623
Heightened Def Con from 0.00264623 ++to 0.00264623
Heightened Def Con from 0.00264623 ++to 0.00264624
Heightened Def Con from 0.00264624 +to 0.00264624
Heightened Def Con from 0.00264624 to 0.00264624
Heightened Def Con from 0.00264624 to 0.00264624
Heightened Def Con from 0.00264624 +to 0.00264624
Heightened Def Con from 0.00264624 to 0.00264624
Heightened Def Con from 0.00264624 to 0.00264624
Heightened Def Con from 0.00264624 +to 0.00264624
Heightened Def Con from 0.00264625 to 0.00264625
Heightened Def Con from 0.00264625 +to 0.00264625
Heightened Def Con from 0.00264625 +to 0.00264625
Heightened Def Con from 0.00264625 to 0.00264625
Heightened Def Con from 0.00264625 to 0.00264625
Heightened Def Con from 0.00264625 +to 0.00264625
Heightened Def Con from 0.00264625 ++to 0.00264625
Heightened Def Con from 0.00264625 +to 0.00264625
Heightened Def Con from 0.00264625 +to 0.00264625
Heightened Def Con from 0.00264625 ++to 0.00264625
Heightened Def Con from 0.00264625 to 0.00264625
Heightened Def Con from 0.00264625 +to 0.00264626
Heightened Def Con from 0.00264626 +to 0.00264626
Heightened Def Con from 0.00264626 ++to 0.00264626
Heightened Def Con from 0.00264626 +to 0.00264626
Heightened Def Con from 0.00264626 ++++++++++++++++++to 0.00264626
Heightened Def Con from 0.00264626 +++++++to 0.00264626
Heightened Def Con from 0.00264626 +to 0.00264626
Heightened Def Con from 0.00264626 ++to 0.00264626
Heightened Def Con from 0.00264626 +to 0.00264626
Heightened Def Con from 0.00264626 +to 0.00264627
Heightened Def Con from 0.00264627 +to 0.00264627
Heightened Def Con from 0.00264627 +to 0.00264627
Heightened Def Con from 0.00264627 ++to 0.00264627
Heightened Def Con from 0.00264627 to 0.00264627
Heightened Def Con from 0.00264627 +to 0.00264627
Heightened Def Con from 0.00264627 +to 0.00264627
Heightened Def Con from 0.00264627 +to 0.00264627
Heightened Def Con from 0.00264627 ++++++++++++++++++to 0.00264627
Heightened Def Con from 0.00264627 ++++++to 0.00264627
Heightened Def Con from 0.00264627 to 0.00264627
Heightened Def Con from 0.00264627 ++to 0.00264628
Heightened Def Con from 0.00264628 to 0.00264628
Heightened Def Con from 0.00264628 to 0.00264628
Heightened Def Con from 0.00264628 to 0.00264628
Heightened Def Con from 0.00264628 to 0.00264628
Heightened Def Con from 0.00264628 +to 0.00264628
Heightened Def Con from 0.00264628 to 0.00264628
Heightened Def Con from 0.00264628 +to 0.00264628
Heightened Def Con from 0.00264628 ++++++to 0.00264628
Heightened Def Con from 0.00264628 ++++++++to 0.00264628
Heightened Def Con from 0.00264628 +to 0.00264628
Heightened Def Con from 0.00264628 to 0.00264628
Heightened Def Con from 0.00264628 to 0.00264628
Heightened Def Con from 0.00264628 to 0.00264629
Heightened Def Con from 0.00264629 +to 0.00264629
Heightened Def Con from 0.00264629 +to 0.00264629
Heightened Def Con from 0.00264629 to 0.00264629
Heightened Def Con from 0.00264629 +to 0.00264629
Heightened Def Con from 0.00264629 to 0.00264629
Heightened Def Con from 0.00264629 to 0.00264629
Heightened Def Con from 0.00264629 +to 0.0026463
Heightened Def Con from 0.0026463 +to 0.0026463
Heightened Def Con from 0.0026463 ++++++++++++++++++to 0.0026463
Heightened Def Con from 0.0026463 ++++++to 0.0026463
Heightened Def Con from 0.0026463 +to 0.0026463
Heightened Def Con from 0.0026463 to 0.0026463
Heightened Def Con from 0.0026463 to 0.0026463
Heightened Def Con from 0.0026463 to 0.00264631
Heightened Def Con from 0.00264631 to 0.00264631
Heightened Def Con from 0.00264631 +to 0.00264631
Heightened Def Con from 0.00264631 ++to 0.00264631
Heightened Def Con from 0.00264631 to 0.00264631
Heightened Def Con from 0.00264631 to 0.00264631
Heightened Def Con from 0.00264631 to 0.00264631
Heightened Def Con from 0.00264631 ++to 0.00264631
Heightened Def Con from 0.00264631 +to 0.00264632
Heightened Def Con from 0.00264632 to 0.00264632
Heightened Def Con from 0.00264632 ++++++++++++++++++to 0.00264632
Heightened Def Con from 0.00264632 +++++++to 0.00264632
Heightened Def Con from 0.00264632 to 0.00264632
Heightened Def Con from 0.00264632 to 0.00264632
Heightened Def Con from 0.00264632 to 0.00264632
Heightened Def Con from 0.00264632 ++to 0.00264632
Heightened Def Con from 0.00264632 +to 0.00264632
Heightened Def Con from 0.00264633 +to 0.00264633
Heightened Def Con from 0.00264633 to 0.00264633
Heightened Def Con from 0.00264633 to 0.00264633
Heightened Def Con from 0.00264633 +to 0.00264633
Heightened Def Con from 0.00264633 ++++++++++++++++++++++++to 0.00264633
Heightened Def Con from 0.00264633 ++++++++++++++++++++to 0.00264633
Heightened Def Con from 0.00264633 +++++++to 0.00264633
Heightened Def Con from 0.00264633 +to 0.00264634
Heightened Def Con from 0.00264634 to 0.00264634
Heightened Def Con from 0.00264634 to 0.00264634
Heightened Def Con from 0.00264634 to 0.00264634
Heightened Def Con from 0.00264634 to 0.00264634
Heightened Def Con from 0.00264634 +to 0.00264634
Heightened Def Con from 0.00264634 +++to 0.00264634
Heightened Def Con from 0.00264634 to 0.00264635
Heightened Def Con from 0.00264635 to 0.00264635
Heightened Def Con from 0.00264635 +to 0.00264635
Heightened Def Con from 0.00264635 +to 0.00264635
Heightened Def Con from 0.00264635 to 0.00264635
Heightened Def Con from 0.00264635 +to 0.00264636
Heightened Def Con from 0.00264636 ++to 0.00264636
Heightened Def Con from 0.00264636 to 0.00264636
Heightened Def Con from 0.00264636 +to 0.00264636
Heightened Def Con from 0.00264636 +to 0.00264637
Heightened Def Con from 0.00264637 ++to 0.00264637
Heightened Def Con from 0.00264637 to 0.00264637
Heightened Def Con from 0.00264637 +++to 0.00264637
Heightened Def Con from 0.00264637 to 0.00264637
Heightened Def Con from 0.00264637 +to 0.00264637
Heightened Def Con from 0.00264637 to 0.00264637
Heightened Def Con from 0.00264637 to 0.00264637
Heightened Def Con from 0.00264637 +to 0.00264638
Heightened Def Con from 0.00264638 +to 0.00264638
Heightened Def Con from 0.00264638 +to 0.00264638
Heightened Def Con from 0.00264638 to 0.00264638
Heightened Def Con from 0.00264638 to 0.00264638
Heightened Def Con from 0.00264638 to 0.00264638
Heightened Def Con from 0.00264638 to 0.00264638
Heightened Def Con from 0.00264638 to 0.00264638
Heightened Def Con from 0.00264638 +to 0.00264638
Heightened Def Con from 0.00264638 to 0.00264639
Heightened Def Con from 0.00264639 to 0.00264639
Heightened Def Con from 0.00264639 to 0.00264639
Heightened Def Con from 0.00264639 to 0.00264639
Heightened Def Con from 0.00264639 +to 0.00264639
Heightened Def Con from 0.00264639 to 0.00264639
Heightened Def Con from 0.00264639 to 0.00264639
Heightened Def Con from 0.00264639 +to 0.00264639
Heightened Def Con from 0.00264639 to 0.0026464
Heightened Def Con from 0.0026464 +++to 0.0026464
Heightened Def Con from 0.0026464 to 0.0026464
Heightened Def Con from 0.0026464 to 0.0026464
Heightened Def Con from 0.0026464 to 0.0026464
Heightened Def Con from 0.0026464 to 0.0026464
Heightened Def Con from 0.0026464 +to 0.0026464
Heightened Def Con from 0.0026464 +to 0.0026464
Heightened Def Con from 0.0026464 +to 0.0026464
Heightened Def Con from 0.0026464 ++to 0.0026464
Heightened Def Con from 0.0026464 +to 0.00264641
Heightened Def Con from 0.00264641 to 0.00264641
Heightened Def Con from 0.00264641 to 0.00264641
Heightened Def Con from 0.00264641 ++++++++++++++to 0.00264641
Heightened Def Con from 0.00264641 +++++to 0.00264641
Heightened Def Con from 0.00264641 +to 0.00264641
Heightened Def Con from 0.00264641 to 0.00264641
Heightened Def Con from 0.00264641 +to 0.00264641
Heightened Def Con from 0.00264641 to 0.00264642
Heightened Def Con from 0.00264642 +++to 0.00264642
Heightened Def Con from 0.00264642 +to 0.00264642
Heightened Def Con from 0.00264642 +to 0.00264642
Heightened Def Con from 0.00264642 +to 0.00264642
Heightened Def Con from 0.00264642 +to 0.00264642
Heightened Def Con from 0.00264642 to 0.00264642
Heightened Def Con from 0.00264642 to 0.00264642
Heightened Def Con from 0.00264642 +++++++++++++++++++to 0.00264642
Heightened Def Con from 0.00264642 ++++++++++++to 0.00264642
Heightened Def Con from 0.00264642 +++to 0.00264642
Heightened Def Con from 0.00264642 to 0.00264642
Heightened Def Con from 0.00264642 to 0.00264642
Heightened Def Con from 0.00264642 +to 0.00264642
Heightened Def Con from 0.00264642 to 0.00264643
Heightened Def Con from 0.00264643 +to 0.00264643
Heightened Def Con from 0.00264643 +to 0.00264643
Heightened Def Con from 0.00264643 +to 0.00264643
Heightened Def Con from 0.00264643 ++to 0.00264643
Heightened Def Con from 0.00264643 +to 0.00264643
Heightened Def Con from 0.00264643 to 0.00264643
Heightened Def Con from 0.00264643 to 0.00264643
Heightened Def Con from 0.00264643 to 0.00264643
Heightened Def Con from 0.00264643 to 0.00264643
Heightened Def Con from 0.00264643 to 0.00264643
Heightened Def Con from 0.00264643 ++++++++++++++to 0.00264643
Heightened Def Con from 0.00264643 +++to 0.00264643
Heightened Def Con from 0.00264643 ++to 0.00264643
Heightened Def Con from 0.00264643 to 0.00264644
Heightened Def Con from 0.00264644 to 0.00264644
Heightened Def Con from 0.00264644 to 0.00264644
Heightened Def Con from 0.00264644 to 0.00264644
Heightened Def Con from 0.00264644 +to 0.00264644
Heightened Def Con from 0.00264644 to 0.00264644
Heightened Def Con from 0.00264644 +to 0.00264645
Heightened Def Con from 0.00264645 to 0.00264645
Heightened Def Con from 0.00264645 +to 0.00264645
Heightened Def Con from 0.00264645 +to 0.00264645
Heightened Def Con from 0.00264645 to 0.00264645
Heightened Def Con from 0.00264645 to 0.00264645
Heightened Def Con from 0.00264645 to 0.00264645
Heightened Def Con from 0.00264645 to 0.00264645
Heightened Def Con from 0.00264645 +to 0.00264645
Heightened Def Con from 0.00264645 +to 0.00264645
Heightened Def Con from 0.00264645 +++to 0.00264646
Heightened Def Con from 0.00264646 +++++++++++++++++++++to 0.00264646
Heightened Def Con from 0.00264646 ++++++++to 0.00264646
Heightened Def Con from 0.00264646 +to 0.00264646
Heightened Def Con from 0.00264646 to 0.00264646
Heightened Def Con from 0.00264646 to 0.00264646
Heightened Def Con from 0.00264646 +to 0.00264646
Heightened Def Con from 0.00264646 to 0.00264646
Heightened Def Con from 0.00264646 +to 0.00264646
Heightened Def Con from 0.00264647 +to 0.00264647
Heightened Def Con from 0.00264647 to 0.00264647
Heightened Def Con from 0.00264647 +to 0.00264647
Heightened Def Con from 0.00264647 to 0.00264647
Heightened Def Con from 0.00264647 ++to 0.00264647
Heightened Def Con from 0.00264647 to 0.00264647
Heightened Def Con from 0.00264647 to 0.00264647
Heightened Def Con from 0.00264647 to 0.00264647
Heightened Def Con from 0.00264648 +to 0.00264648
Heightened Def Con from 0.00264648 +to 0.00264648
Heightened Def Con from 0.00264648 +to 0.00264648
Heightened Def Con from 0.00264648 +++to 0.00264648
Heightened Def Con from 0.00264648 to 0.00264648
Heightened Def Con from 0.00264648 to 0.00264648
Heightened Def Con from 0.00264648 to 0.00264648
Heightened Def Con from 0.00264648 to 0.00264649
Heightened Def Con from 0.00264649 +to 0.00264649
Heightened Def Con from 0.00264649 to 0.00264649
Heightened Def Con from 0.00264649 to 0.00264649
Heightened Def Con from 0.00264649 ++to 0.00264649
Heightened Def Con from 0.00264649 +to 0.00264649
Heightened Def Con from 0.00264649 to 0.00264649
Heightened Def Con from 0.00264649 +to 0.00264649
Heightened Def Con from 0.00264649 to 0.00264649
Heightened Def Con from 0.00264649 to 0.0026465
Heightened Def Con from 0.0026465 to 0.0026465
Heightened Def Con from 0.0026465 to 0.0026465
Heightened Def Con from 0.0026465 to 0.0026465
Heightened Def Con from 0.0026465 to 0.0026465
Heightened Def Con from 0.0026465 to 0.0026465
Heightened Def Con from 0.0026465 to 0.0026465
Heightened Def Con from 0.00264651 +to 0.00264651
Heightened Def Con from 0.00264651 to 0.00264651
Heightened Def Con from 0.00264651 to 0.00264651
Heightened Def Con from 0.00264651 to 0.00264651
Heightened Def Con from 0.00264651 +to 0.00264651
Heightened Def Con from 0.00264651 to 0.00264651
Heightened Def Con from 0.00264651 +to 0.00264651
Heightened Def Con from 0.00264651 +to 0.00264652
Heightened Def Con from 0.00264652 to 0.00264652
Heightened Def Con from 0.00264652 +to 0.00264652
Heightened Def Con from 0.00264652 +to 0.00264652
Heightened Def Con from 0.00264652 to 0.00264652
Heightened Def Con from 0.00264652 to 0.00264652
Heightened Def Con from 0.00264652 to 0.00264652
Heightened Def Con from 0.00264652 to 0.00264652
Heightened Def Con from 0.00264652 to 0.00264652
Heightened Def Con from 0.00264652 to 0.00264653
Heightened Def Con from 0.00264654 to 0.00264654
Heightened Def Con from 0.00264654 +to 0.00264654
Heightened Def Con from 0.00264654 to 0.00264654
Heightened Def Con from 0.00264654 to 0.00264654
Heightened Def Con from 0.00264656 to 0.00264656
Heightened Def Con from 0.00264657 +to 0.00264657
Heightened Def Con from 0.00264657 to 0.00264657
Heightened Def Con from 0.00264657 +to 0.00264657
Heightened Def Con from 0.00264657 to 0.00264657
Heightened Def Con from 0.00264657 ++to 0.00264658
Heightened Def Con from 0.00264658 to 0.00264658
Heightened Def Con from 0.00264658 to 0.00264658
Heightened Def Con from 0.00264658 to 0.00264658
Heightened Def Con from 0.00264658 +to 0.00264658
Heightened Def Con from 0.00264658 +to 0.00264658
Heightened Def Con from 0.00264658 to 0.00264658
Heightened Def Con from 0.00264659 to 0.00264659
Heightened Def Con from 0.00264659 to 0.00264659
Heightened Def Con from 0.00264659 to 0.00264659
Heightened Def Con from 0.00264659 to 0.00264659
Heightened Def Con from 0.00264659 +to 0.00264659
Heightened Def Con from 0.00264659 to 0.00264659
Heightened Def Con from 0.00264659 to 0.00264659
Heightened Def Con from 0.00264659 +to 0.0026466
Heightened Def Con from 0.0026466 to 0.0026466
Heightened Def Con from 0.0026466 +to 0.0026466
Heightened Def Con from 0.0026466 +to 0.0026466
Heightened Def Con from 0.0026466 +++to 0.0026466
Heightened Def Con from 0.0026466 +to 0.0026466
Heightened Def Con from 0.0026466 +to 0.0026466
Heightened Def Con from 0.0026466 +to 0.0026466
Heightened Def Con from 0.0026466 ++to 0.0026466
Heightened Def Con from 0.0026466 to 0.0026466
Heightened Def Con from 0.0026466 to 0.0026466
Heightened Def Con from 0.0026466 to 0.0026466
Heightened Def Con from 0.0026466 ++++++++++++++++++++to 0.0026466
Heightened Def Con from 0.0026466 ++++++++to 0.0026466
Heightened Def Con from 0.0026466 +to 0.00264661
Heightened Def Con from 0.00264661 +to 0.00264661
Heightened Def Con from 0.00264661 +to 0.00264661
Heightened Def Con from 0.00264661 ++to 0.00264661
Heightened Def Con from 0.00264661 +to 0.00264661
Heightened Def Con from 0.00264661 to 0.00264661
Heightened Def Con from 0.00264661 to 0.00264661
Heightened Def Con from 0.00264661 to 0.00264661
Heightened Def Con from 0.00264661 to 0.00264662
Heightened Def Con from 0.00264662 to 0.00264662
Heightened Def Con from 0.00264662 +to 0.00264662
Heightened Def Con from 0.00264662 to 0.00264662
Heightened Def Con from 0.00264662 to 0.00264662
Heightened Def Con from 0.00264662 ++++to 0.00264662
Heightened Def Con from 0.00264662 to 0.00264662
Heightened Def Con from 0.00264662 ++to 0.00264663
Heightened Def Con from 0.00264663 ++to 0.00264663
Heightened Def Con from 0.00264663 ++to 0.00264663
Heightened Def Con from 0.00264663 to 0.00264663
Heightened Def Con from 0.00264663 to 0.00264663
Heightened Def Con from 0.00264663 to 0.00264663
Heightened Def Con from 0.00264663 to 0.00264663
Heightened Def Con from 0.00264663 to 0.00264663
Heightened Def Con from 0.00264663 +to 0.00264663
Heightened Def Con from 0.00264663 +to 0.00264663
Heightened Def Con from 0.00264663 to 0.00264664
Heightened Def Con from 0.00264664 to 0.00264664
Heightened Def Con from 0.00264664 to 0.00264664
Heightened Def Con from 0.00264664 +to 0.00264664
Heightened Def Con from 0.00264664 to 0.00264665
Heightened Def Con from 0.00264665 to 0.00264665
Heightened Def Con from 0.00264665 +to 0.00264665
Heightened Def Con from 0.00264665 ++to 0.00264665
Heightened Def Con from 0.00264665 to 0.00264665
Heightened Def Con from 0.00264665 +to 0.00264665
Heightened Def Con from 0.00264665 +to 0.00264665
Heightened Def Con from 0.00264665 to 0.00264665
Heightened Def Con from 0.00264665 to 0.00264665
Heightened Def Con from 0.00264665 to 0.00264666
Heightened Def Con from 0.00264666 +++++++++++++++++++++++to 0.00264666
Heightened Def Con from 0.00264666 +++++++++++++++++++to 0.00264666
Heightened Def Con from 0.00264666 ++++++to 0.00264666
Heightened Def Con from 0.00264666 +to 0.00264666
Heightened Def Con from 0.00264666 to 0.00264666
Heightened Def Con from 0.00264666 +++to 0.00264666
Heightened Def Con from 0.00264666 +to 0.00264666
Heightened Def Con from 0.00264666 ++to 0.00264667
Heightened Def Con from 0.00264667 to 0.00264667
Heightened Def Con from 0.00264667 to 0.00264667
Heightened Def Con from 0.00264667 to 0.00264667
Heightened Def Con from 0.00264667 to 0.00264667
Heightened Def Con from 0.00264667 +to 0.00264667
Heightened Def Con from 0.00264667 to 0.00264667
Heightened Def Con from 0.00264667 to 0.00264668
Heightened Def Con from 0.00264668 to 0.00264668
Heightened Def Con from 0.00264668 to 0.00264668
Heightened Def Con from 0.00264668 to 0.00264668
Heightened Def Con from 0.00264668 +to 0.00264668
Heightened Def Con from 0.00264668 +to 0.00264668
Heightened Def Con from 0.00264668 +to 0.00264668
Heightened Def Con from 0.00264669 +to 0.00264669
Heightened Def Con from 0.00264669 to 0.00264669
Heightened Def Con from 0.00264669 ++to 0.00264669
Heightened Def Con from 0.00264669 to 0.00264669
Heightened Def Con from 0.00264669 to 0.00264669
Heightened Def Con from 0.00264669 to 0.00264669
Heightened Def Con from 0.00264669 +to 0.00264669
Heightened Def Con from 0.00264669 +to 0.00264669
Heightened Def Con from 0.00264669 to 0.00264669
Heightened Def Con from 0.00264669 +to 0.0026467
Heightened Def Con from 0.0026467 to 0.0026467
Heightened Def Con from 0.0026467 to 0.0026467
Heightened Def Con from 0.0026467 +to 0.0026467
Heightened Def Con from 0.0026467 +to 0.0026467
Heightened Def Con from 0.0026467 to 0.0026467
Heightened Def Con from 0.0026467 +to 0.0026467
Heightened Def Con from 0.0026467 to 0.0026467
Heightened Def Con from 0.0026467 to 0.0026467
Heightened Def Con from 0.0026467 +to 0.0026467
Heightened Def Con from 0.0026467 to 0.0026467
Heightened Def Con from 0.0026467 to 0.00264671
Heightened Def Con from 0.00264671 ++to 0.00264671
Heightened Def Con from 0.00264671 to 0.00264671
Heightened Def Con from 0.00264671 to 0.00264671
Heightened Def Con from 0.00264671 to 0.00264671
Heightened Def Con from 0.00264671 to 0.00264672
Heightened Def Con from 0.00264672 to 0.00264672
Heightened Def Con from 0.00264672 to 0.00264672
Heightened Def Con from 0.00264672 +to 0.00264672
Heightened Def Con from 0.00264672 +to 0.00264672
Heightened Def Con from 0.00264672 +to 0.00264672
Heightened Def Con from 0.00264672 +to 0.00264672
Heightened Def Con from 0.00264672 +++to 0.00264672
Heightened Def Con from 0.00264672 ++++++++++++++++to 0.00264672
Heightened Def Con from 0.00264672 ++++to 0.00264673
Heightened Def Con from 0.00264673 to 0.00264673
Heightened Def Con from 0.00264673 +to 0.00264673
Heightened Def Con from 0.00264673 +to 0.00264673
Heightened Def Con from 0.00264673 +to 0.00264673
Heightened Def Con from 0.00264673 to 0.00264673
Heightened Def Con from 0.00264673 to 0.00264673
Heightened Def Con from 0.00264673 to 0.00264673
Heightened Def Con from 0.00264673 ++to 0.00264673
Heightened Def Con from 0.00264673 to 0.00264673
Heightened Def Con from 0.00264673 to 0.00264673
Heightened Def Con from 0.00264673 +to 0.00264674
Heightened Def Con from 0.00264674 +to 0.00264674
Heightened Def Con from 0.00264674 +to 0.00264674
Heightened Def Con from 0.00264674 +to 0.00264674
Heightened Def Con from 0.00264674 to 0.00264674
Heightened Def Con from 0.00264674 to 0.00264674
Heightened Def Con from 0.00264674 to 0.00264674
Heightened Def Con from 0.00264674 to 0.00264674
Heightened Def Con from 0.00264675 +to 0.00264675
Heightened Def Con from 0.00264675 +to 0.00264675
Heightened Def Con from 0.00264675 to 0.00264675
Heightened Def Con from 0.00264675 ++to 0.00264675
Heightened Def Con from 0.00264675 +to 0.00264675
Heightened Def Con from 0.00264675 to 0.00264675
Heightened Def Con from 0.00264675 to 0.00264675
Heightened Def Con from 0.00264676 to 0.00264676
Heightened Def Con from 0.00264676 to 0.00264676
Heightened Def Con from 0.00264676 +to 0.00264676
Heightened Def Con from 0.00264676 to 0.00264676
Heightened Def Con from 0.00264676 ++to 0.00264676
Heightened Def Con from 0.00264676 +to 0.00264676
Heightened Def Con from 0.00264676 +to 0.00264676
Heightened Def Con from 0.00264676 ++to 0.00264676
Heightened Def Con from 0.00264676 +to 0.00264677
Heightened Def Con from 0.00264677 +++to 0.00264677
Heightened Def Con from 0.00264677 ++to 0.00264677
Heightened Def Con from 0.00264677 to 0.00264677
Heightened Def Con from 0.00264677 to 0.00264677
Heightened Def Con from 0.00264677 ++to 0.00264677
Heightened Def Con from 0.00264677 to 0.00264677
Heightened Def Con from 0.00264677 to 0.00264677
Heightened Def Con from 0.00264677 +to 0.00264678
Heightened Def Con from 0.00264678 to 0.00264678
Heightened Def Con from 0.00264678 to 0.00264678
Heightened Def Con from 0.00264678 ++to 0.00264678
Heightened Def Con from 0.00264678 to 0.00264678
Heightened Def Con from 0.00264678 to 0.00264678
Heightened Def Con from 0.00264678 +to 0.00264678
Heightened Def Con from 0.00264678 to 0.00264678
Heightened Def Con from 0.00264678 +++to 0.00264679
Heightened Def Con from 0.00264679 +to 0.00264679
Heightened Def Con from 0.00264679 to 0.00264679
Heightened Def Con from 0.00264679 ++++++++++++++++++++to 0.00264679
Heightened Def Con from 0.00264679 +++++++to 0.00264679
Heightened Def Con from 0.00264679 to 0.00264679
Heightened Def Con from 0.00264679 +to 0.00264679
Heightened Def Con from 0.00264679 to 0.00264679
Heightened Def Con from 0.00264679 +++++++++++++++++++++++to 0.00264679
Heightened Def Con from 0.00264679 +++++++++++++++++++to 0.0026468
Heightened Def Con from 0.0026468 ++++++to 0.0026468
Heightened Def Con from 0.0026468 +++++++++++++++++++++++to 0.0026468
Heightened Def Con from 0.0026468 +++++++++++++++++++to 0.0026468
Heightened Def Con from 0.0026468 +++++++to 0.0026468
Heightened Def Con from 0.0026468 to 0.0026468
Heightened Def Con from 0.0026468 +to 0.0026468
Heightened Def Con from 0.0026468 +to 0.0026468
Heightened Def Con from 0.0026468 +++to 0.0026468
Heightened Def Con from 0.0026468 ++++++++++++++++++++++++to 0.0026468
Heightened Def Con from 0.0026468 ++++++++++++++++++++to 0.00264681
Heightened Def Con from 0.00264681 +++++++to 0.00264681
Heightened Def Con from 0.00264681 +++to 0.00264681
Heightened Def Con from 0.00264681 ++to 0.00264681
Heightened Def Con from 0.00264681 ++to 0.00264681
Heightened Def Con from 0.00264681 +to 0.00264682
Heightened Def Con from 0.00264682 ++to 0.00264682
Heightened Def Con from 0.00264682 +to 0.00264682
Heightened Def Con from 0.00264682 to 0.00264683
Heightened Def Con from 0.00264683 +to 0.00264683
Heightened Def Con from 0.00264683 ++to 0.00264683
Heightened Def Con from 0.00264683 +to 0.00264683
Heightened Def Con from 0.00264683 +to 0.00264684
Heightened Def Con from 0.00264684 +to 0.00264684
Heightened Def Con from 0.00264684 +to 0.00264684
Heightened Def Con from 0.00264684 to 0.00264684
Heightened Def Con from 0.00264684 to 0.00264684
Heightened Def Con from 0.00264684 ++to 0.00264685
Heightened Def Con from 0.00264685 +to 0.00264685
Heightened Def Con from 0.00264685 to 0.00264685
Heightened Def Con from 0.00264685 to 0.00264685
Heightened Def Con from 0.00264685 +to 0.00264685
Heightened Def Con from 0.00264685 to 0.00264685
Heightened Def Con from 0.00264685 +to 0.00264685
Heightened Def Con from 0.00264685 to 0.00264686
Heightened Def Con from 0.00264686 to 0.00264686
Heightened Def Con from 0.00264686 +++to 0.00264686
Heightened Def Con from 0.00264686 +to 0.00264686
Heightened Def Con from 0.00264686 to 0.00264686
Heightened Def Con from 0.00264686 to 0.00264686
Heightened Def Con from 0.00264686 to 0.00264686
Heightened Def Con from 0.00264686 ++to 0.00264686
Heightened Def Con from 0.00264686 ++to 0.00264686
Heightened Def Con from 0.00264686 to 0.00264686
Heightened Def Con from 0.00264686 to 0.00264686
Heightened Def Con from 0.00264686 +++to 0.00264687
Heightened Def Con from 0.00264687 to 0.00264687
Heightened Def Con from 0.00264687 +to 0.00264687
Heightened Def Con from 0.00264687 ++to 0.00264687
Heightened Def Con from 0.00264687 +to 0.00264687
Heightened Def Con from 0.00264687 to 0.00264687
Heightened Def Con from 0.00264687 to 0.00264687
Heightened Def Con from 0.00264687 +to 0.00264687
Heightened Def Con from 0.00264687 to 0.00264687
Heightened Def Con from 0.00264687 +++++++++++++++++++to 0.00264687
Heightened Def Con from 0.00264687 +++++++++to 0.00264687
Heightened Def Con from 0.00264687 ++++to 0.00264688
Heightened Def Con from 0.00264688 +to 0.00264688
Heightened Def Con from 0.00264688 to 0.00264688
Heightened Def Con from 0.00264688 +to 0.00264688
Heightened Def Con from 0.00264688 to 0.00264688
Heightened Def Con from 0.00264688 ++to 0.00264688
Heightened Def Con from 0.00264688 ++to 0.00264688
Heightened Def Con from 0.00264688 +to 0.00264689
Heightened Def Con from 0.00264689 to 0.00264689
Heightened Def Con from 0.00264689 to 0.00264689
Heightened Def Con from 0.00264689 to 0.00264689
Heightened Def Con from 0.00264689 to 0.00264689
Heightened Def Con from 0.00264689 +to 0.00264689
Heightened Def Con from 0.00264689 to 0.00264689
Heightened Def Con from 0.00264689 +to 0.00264689
Heightened Def Con from 0.0026469 +to 0.0026469
Heightened Def Con from 0.0026469 ++++++++++++++to 0.0026469
Heightened Def Con from 0.0026469 ++to 0.0026469
Heightened Def Con from 0.0026469 to 0.0026469
Heightened Def Con from 0.0026469 to 0.0026469
Heightened Def Con from 0.0026469 +to 0.0026469
Heightened Def Con from 0.0026469 to 0.0026469
Heightened Def Con from 0.0026469 +to 0.0026469
Heightened Def Con from 0.0026469 to 0.0026469
Heightened Def Con from 0.0026469 +to 0.00264691
Heightened Def Con from 0.00264691 to 0.00264691
Heightened Def Con from 0.00264691 +to 0.00264691
Heightened Def Con from 0.00264691 ++to 0.00264691
Heightened Def Con from 0.00264691 +to 0.00264691
Heightened Def Con from 0.00264691 to 0.00264691
Heightened Def Con from 0.00264691 to 0.00264691
Heightened Def Con from 0.00264691 to 0.00264691
Heightened Def Con from 0.00264691 to 0.00264692
Heightened Def Con from 0.00264692 +to 0.00264692
Heightened Def Con from 0.00264692 +to 0.00264692
Heightened Def Con from 0.00264692 +to 0.00264692
Heightened Def Con from 0.00264692 to 0.00264692
Heightened Def Con from 0.00264692 +to 0.00264692
Heightened Def Con from 0.00264692 to 0.00264692
Heightened Def Con from 0.00264692 +to 0.00264692
Heightened Def Con from 0.00264692 to 0.00264692
Heightened Def Con from 0.00264692 to 0.00264692
Heightened Def Con from 0.00264692 to 0.00264693
Heightened Def Con from 0.00264693 ++to 0.00264693
Heightened Def Con from 0.00264693 to 0.00264693
Heightened Def Con from 0.00264693 to 0.00264693
Heightened Def Con from 0.00264693 +to 0.00264693
Heightened Def Con from 0.00264693 to 0.00264693
Heightened Def Con from 0.00264693 +to 0.00264693
Heightened Def Con from 0.00264693 +to 0.00264693
Heightened Def Con from 0.00264693 +to 0.00264694
Heightened Def Con from 0.00264694 ++to 0.00264694
Heightened Def Con from 0.00264694 to 0.00264694
Heightened Def Con from 0.00264694 to 0.00264694
Heightened Def Con from 0.00264694 to 0.00264694
Heightened Def Con from 0.00264694 to 0.00264694
Heightened Def Con from 0.00264694 +to 0.00264694
Heightened Def Con from 0.00264694 ++to 0.00264694
Heightened Def Con from 0.00264694 ++to 0.00264695
Heightened Def Con from 0.00264695 +to 0.00264695
Heightened Def Con from 0.00264695 to 0.00264695
Heightened Def Con from 0.00264695 +to 0.00264695
Heightened Def Con from 0.00264695 +to 0.00264695
Heightened Def Con from 0.00264695 ++to 0.00264695
Heightened Def Con from 0.00264695 +to 0.00264695
Heightened Def Con from 0.00264695 +to 0.00264696
Heightened Def Con from 0.00264696 to 0.00264696
Heightened Def Con from 0.00264696 +to 0.00264696
Heightened Def Con from 0.00264696 to 0.00264696
Heightened Def Con from 0.00264696 +to 0.00264696
Heightened Def Con from 0.00264696 +to 0.00264696
Heightened Def Con from 0.00264696 ++to 0.00264696
Heightened Def Con from 0.00264696 to 0.00264696
Heightened Def Con from 0.00264696 to 0.00264696
Heightened Def Con from 0.00264696 to 0.00264696
Heightened Def Con from 0.00264696 +to 0.00264696
Heightened Def Con from 0.00264696 +to 0.00264697
Heightened Def Con from 0.00264697 +to 0.00264697
Heightened Def Con from 0.00264697 ++++++++++++++++++to 0.00264697
Heightened Def Con from 0.00264697 +++++++to 0.00264697
Heightened Def Con from 0.00264697 +to 0.00264697
Heightened Def Con from 0.00264697 ++to 0.00264697
Heightened Def Con from 0.00264697 to 0.00264697
Heightened Def Con from 0.00264698 to 0.00264698
Heightened Def Con from 0.00264698 to 0.00264698
Heightened Def Con from 0.00264698 to 0.00264698
Heightened Def Con from 0.00264698 to 0.00264698
Heightened Def Con from 0.00264698 to 0.00264698
Heightened Def Con from 0.00264698 +to 0.00264698
Heightened Def Con from 0.00264698 +to 0.00264698
Heightened Def Con from 0.00264698 to 0.00264698
Heightened Def Con from 0.00264698 to 0.00264699
Heightened Def Con from 0.00264699 +to 0.00264699
Heightened Def Con from 0.00264699 to 0.00264699
Heightened Def Con from 0.00264699 ++to 0.00264699
Heightened Def Con from 0.00264699 to 0.00264699
Heightened Def Con from 0.00264699 to 0.00264699
Heightened Def Con from 0.00264699 +to 0.00264699
Heightened Def Con from 0.00264699 +to 0.00264699
Heightened Def Con from 0.00264699 +to 0.002647
Heightened Def Con from 0.002647 +to 0.002647
Heightened Def Con from 0.002647 +to 0.002647
Heightened Def Con from 0.002647 to 0.002647
Heightened Def Con from 0.002647 to 0.002647
Heightened Def Con from 0.002647 to 0.002647
Heightened Def Con from 0.002647 ++to 0.002647
Heightened Def Con from 0.002647 ++to 0.00264701
Heightened Def Con from 0.00264701 +to 0.00264701
Heightened Def Con from 0.00264701 ++to 0.00264701
Heightened Def Con from 0.00264701 to 0.00264701
Heightened Def Con from 0.00264701 to 0.00264701
Heightened Def Con from 0.00264701 ++to 0.00264701
Heightened Def Con from 0.00264701 ++to 0.00264701
Heightened Def Con from 0.00264701 +to 0.00264701
Heightened Def Con from 0.00264701 +to 0.00264701
Heightened Def Con from 0.00264701 to 0.00264701
Heightened Def Con from 0.00264701 +to 0.00264702
Heightened Def Con from 0.00264702 +to 0.00264702
Heightened Def Con from 0.00264702 to 0.00264702
Heightened Def Con from 0.00264702 to 0.00264702
Heightened Def Con from 0.00264702 to 0.00264702
Heightened Def Con from 0.00264702 to 0.00264702
Heightened Def Con from 0.00264702 to 0.00264702
Heightened Def Con from 0.00264702 +to 0.00264702
Heightened Def Con from 0.00264703 to 0.00264703
Heightened Def Con from 0.00264703 to 0.00264703
Heightened Def Con from 0.00264703 ++to 0.00264703
Heightened Def Con from 0.00264703 +to 0.00264703
Heightened Def Con from 0.00264703 +to 0.00264703
Heightened Def Con from 0.00264703 +to 0.00264703
Heightened Def Con from 0.00264703 to 0.00264704
Heightened Def Con from 0.00264704 to 0.00264704
Heightened Def Con from 0.00264704 to 0.00264704
Heightened Def Con from 0.00264704 +to 0.00264704
Heightened Def Con from 0.00264704 +to 0.00264704
Heightened Def Con from 0.00264704 to 0.00264704
Heightened Def Con from 0.00264704 to 0.00264704
Heightened Def Con from 0.00264704 to 0.00264704
Heightened Def Con from 0.00264704 ++to 0.00264705
Heightened Def Con from 0.00264705 +to 0.00264705
Heightened Def Con from 0.00264705 to 0.00264705
Heightened Def Con from 0.00264705 to 0.00264705
Heightened Def Con from 0.00264705 ++to 0.00264705
Heightened Def Con from 0.00264705 to 0.00264705
Heightened Def Con from 0.00264705 to 0.00264705
Heightened Def Con from 0.00264705 +to 0.00264706
Heightened Def Con from 0.00264706 to 0.00264706
Heightened Def Con from 0.00264706 to 0.00264706
Heightened Def Con from 0.00264706 ++++++++++++++++++to 0.00264706
Heightened Def Con from 0.00264706 +++++++to 0.00264706
Heightened Def Con from 0.00264706 +to 0.00264706
Heightened Def Con from 0.00264706 to 0.00264706
Heightened Def Con from 0.00264706 ++to 0.00264706
Heightened Def Con from 0.00264706 +to 0.00264706
Heightened Def Con from 0.00264706 +to 0.00264706
Heightened Def Con from 0.00264706 ++to 0.00264706
Heightened Def Con from 0.00264706 to 0.00264707
Heightened Def Con from 0.00264707 to 0.00264707
Heightened Def Con from 0.00264707 to 0.00264707
Heightened Def Con from 0.00264707 +to 0.00264707
Heightened Def Con from 0.00264707 +to 0.00264707
Heightened Def Con from 0.00264707 to 0.00264707
Heightened Def Con from 0.00264707 to 0.00264707
Heightened Def Con from 0.00264707 to 0.00264707
Heightened Def Con from 0.00264707 to 0.00264707
Heightened Def Con from 0.00264707 to 0.00264708
Heightened Def Con from 0.00264708 ++to 0.00264708
Heightened Def Con from 0.00264708 to 0.00264708
Heightened Def Con from 0.00264708 to 0.00264708
Heightened Def Con from 0.00264708 to 0.00264708
Heightened Def Con from 0.00264708 +to 0.00264708
Heightened Def Con from 0.00264708 +to 0.00264708
Heightened Def Con from 0.00264708 to 0.00264708
Heightened Def Con from 0.00264708 to 0.00264709
Heightened Def Con from 0.00264709 to 0.00264709
Heightened Def Con from 0.00264709 to 0.00264709
Heightened Def Con from 0.00264709 +to 0.00264709
Heightened Def Con from 0.00264709 to 0.00264709
Heightened Def Con from 0.00264709 to 0.00264709
Heightened Def Con from 0.00264709 +++to 0.00264709
Heightened Def Con from 0.00264709 to 0.00264709
Heightened Def Con from 0.00264709 to 0.00264709
Heightened Def Con from 0.00264709 to 0.0026471
Heightened Def Con from 0.0026471 to 0.0026471
Heightened Def Con from 0.0026471 +to 0.0026471
Heightened Def Con from 0.0026471 to 0.0026471
Heightened Def Con from 0.0026471 to 0.0026471
Heightened Def Con from 0.0026471 to 0.0026471
Heightened Def Con from 0.0026471 +to 0.0026471
Heightened Def Con from 0.0026471 to 0.0026471
Heightened Def Con from 0.0026471 to 0.00264711
Heightened Def Con from 0.00264711 +to 0.00264711
Heightened Def Con from 0.00264711 to 0.00264711
Heightened Def Con from 0.00264711 +to 0.00264711
Heightened Def Con from 0.00264711 to 0.00264711
Heightened Def Con from 0.00264711 +++++++++++++++++++++++to 0.00264711
Heightened Def Con from 0.00264711 +++++++++++++++++++to 0.00264711
Heightened Def Con from 0.00264711 ++++++to 0.00264711
Heightened Def Con from 0.00264711 +to 0.00264711
Heightened Def Con from 0.00264711 +++++++++++to 0.00264711
Heightened Def Con from 0.00264711 ++to 0.00264711
Heightened Def Con from 0.00264711 to 0.00264711
Heightened Def Con from 0.00264711 to 0.00264712
Heightened Def Con from 0.00264712 to 0.00264712
Heightened Def Con from 0.00264712 +to 0.00264712
Heightened Def Con from 0.00264712 to 0.00264712
Heightened Def Con from 0.00264712 to 0.00264712
Heightened Def Con from 0.00264712 to 0.00264712
Heightened Def Con from 0.00264712 to 0.00264712
Heightened Def Con from 0.00264712 +to 0.00264712
Heightened Def Con from 0.00264712 +to 0.00264713
Heightened Def Con from 0.00264713 to 0.00264713
Heightened Def Con from 0.00264713 to 0.00264713
Heightened Def Con from 0.00264713 +to 0.00264713
Heightened Def Con from 0.00264713 to 0.00264713
Heightened Def Con from 0.00264713 to 0.00264713
Heightened Def Con from 0.00264713 to 0.00264713
Heightened Def Con from 0.00264713 +to 0.00264713
Heightened Def Con from 0.00264713 ++++++++++++++++++++to 0.00264713
Heightened Def Con from 0.00264713 +++++++++to 0.00264713
Heightened Def Con from 0.00264713 ++++to 0.00264714
Heightened Def Con from 0.00264714 +to 0.00264714
Heightened Def Con from 0.00264714 to 0.00264714
Heightened Def Con from 0.00264714 +to 0.00264714
Heightened Def Con from 0.00264714 to 0.00264714
Heightened Def Con from 0.00264714 +to 0.00264714
Heightened Def Con from 0.00264714 +to 0.00264714
Heightened Def Con from 0.00264714 +to 0.00264714
Heightened Def Con from 0.00264714 to 0.00264714
Heightened Def Con from 0.00264714 +to 0.00264715
Heightened Def Con from 0.00264715 ++to 0.00264715
Heightened Def Con from 0.00264715 +++++++++++++++++++++++to 0.00264715
Heightened Def Con from 0.00264715 +++++++++++++++++++to 0.00264715
Heightened Def Con from 0.00264715 ++++++to 0.00264715
Heightened Def Con from 0.00264715 ++to 0.00264715
Heightened Def Con from 0.00264715 to 0.00264716
Heightened Def Con from 0.00264716 +++++++++++++++++++++++to 0.00264716
Heightened Def Con from 0.00264716 +++++++++++++++++++to 0.00264716
Heightened Def Con from 0.00264716 ++++++++to 0.00264716
Heightened Def Con from 0.00264716 to 0.00264716
Heightened Def Con from 0.00264716 ++++++++++++++++++to 0.00264716
Heightened Def Con from 0.00264716 ++++++++++++to 0.00264716
Heightened Def Con from 0.00264716 +++to 0.00264716
Heightened Def Con from 0.00264716 ++to 0.00264717
Heightened Def Con from 0.00264717 ++to 0.00264717
Heightened Def Con from 0.00264717 to 0.00264717
Heightened Def Con from 0.00264717 to 0.00264717
Heightened Def Con from 0.00264717 to 0.00264717
Heightened Def Con from 0.00264717 +to 0.00264717
Heightened Def Con from 0.00264717 to 0.00264717
Heightened Def Con from 0.00264717 ++to 0.00264717
Heightened Def Con from 0.00264717 to 0.00264717
Heightened Def Con from 0.00264717 to 0.00264718
Heightened Def Con from 0.00264718 to 0.00264718
Heightened Def Con from 0.00264718 ++to 0.00264718
Heightened Def Con from 0.00264718 ++++++++++++++to 0.00264718
Heightened Def Con from 0.00264718 ++to 0.00264718
Heightened Def Con from 0.00264718 to 0.00264718
Heightened Def Con from 0.00264718 to 0.00264718
Heightened Def Con from 0.00264718 to 0.00264718
Heightened Def Con from 0.00264718 to 0.00264718
Heightened Def Con from 0.00264718 +to 0.00264718
Heightened Def Con from 0.00264718 to 0.00264718
Heightened Def Con from 0.00264718 to 0.00264718
Heightened Def Con from 0.00264718 +to 0.00264719
Heightened Def Con from 0.00264719 +to 0.00264719
Heightened Def Con from 0.00264719 +to 0.00264719
Heightened Def Con from 0.00264719 +to 0.00264719
Heightened Def Con from 0.00264719 to 0.00264719
Heightened Def Con from 0.00264719 to 0.00264719
Heightened Def Con from 0.00264719 +++to 0.00264719
Heightened Def Con from 0.00264719 +to 0.00264719
Heightened Def Con from 0.00264719 +to 0.00264719
Heightened Def Con from 0.00264719 ++to 0.0026472
Heightened Def Con from 0.0026472 to 0.0026472
Heightened Def Con from 0.0026472 +to 0.0026472
Heightened Def Con from 0.0026472 to 0.0026472
Heightened Def Con from 0.0026472 to 0.0026472
Heightened Def Con from 0.0026472 +to 0.0026472
Heightened Def Con from 0.0026472 to 0.0026472
Heightened Def Con from 0.0026472 +to 0.00264721
Heightened Def Con from 0.00264721 +to 0.00264721
Heightened Def Con from 0.00264721 +to 0.00264721
Heightened Def Con from 0.00264721 +to 0.00264721
Heightened Def Con from 0.00264721 to 0.00264721
Heightened Def Con from 0.00264721 +to 0.00264721
Heightened Def Con from 0.00264721 +to 0.00264721
Heightened Def Con from 0.00264721 ++to 0.00264721
Heightened Def Con from 0.00264721 to 0.00264721
Heightened Def Con from 0.00264721 to 0.00264722
Heightened Def Con from 0.00264722 to 0.00264722
Heightened Def Con from 0.00264722 to 0.00264722
Heightened Def Con from 0.00264722 +++to 0.00264722
Heightened Def Con from 0.00264722 to 0.00264722
Heightened Def Con from 0.00264722 to 0.00264722
Heightened Def Con from 0.00264722 to 0.00264722
Heightened Def Con from 0.00264722 ++to 0.00264722
Heightened Def Con from 0.00264722 ++to 0.00264722
Heightened Def Con from 0.00264722 +to 0.00264723
Heightened Def Con from 0.00264723 +to 0.00264723
Heightened Def Con from 0.00264723 +to 0.00264723
Heightened Def Con from 0.00264723 to 0.00264723
Heightened Def Con from 0.00264723 to 0.00264723
Heightened Def Con from 0.00264723 to 0.00264723
Heightened Def Con from 0.00264723 +to 0.00264723
Heightened Def Con from 0.00264723 +to 0.00264723
Heightened Def Con from 0.00264723 +to 0.00264723
Heightened Def Con from 0.00264723 to 0.00264723
Heightened Def Con from 0.00264723 +to 0.00264724
Heightened Def Con from 0.00264724 to 0.00264724
Heightened Def Con from 0.00264724 +to 0.00264724
Heightened Def Con from 0.00264724 +to 0.00264724
Heightened Def Con from 0.00264724 +to 0.00264724
Heightened Def Con from 0.00264724 +to 0.00264724
Heightened Def Con from 0.00264724 +to 0.00264724
Heightened Def Con from 0.00264724 +to 0.00264724
Heightened Def Con from 0.00264724 +to 0.00264724
Heightened Def Con from 0.00264724 +to 0.00264725
Heightened Def Con from 0.00264725 to 0.00264725
Heightened Def Con from 0.00264725 to 0.00264725
Heightened Def Con from 0.00264725 to 0.00264725
Heightened Def Con from 0.00264725 to 0.00264725
Heightened Def Con from 0.00264725 ++to 0.00264725
Heightened Def Con from 0.00264725 +to 0.00264725
Heightened Def Con from 0.00264725 +++to 0.00264725
Heightened Def Con from 0.00264725 ++++to 0.00264725
Heightened Def Con from 0.00264725 ++++++++++++++++++++++to 0.00264725
Heightened Def Con from 0.00264725 +++++++++to 0.00264725
Heightened Def Con from 0.00264725 +to 0.00264725
Heightened Def Con from 0.00264725 +to 0.00264725
Heightened Def Con from 0.00264725 +to 0.00264725
Heightened Def Con from 0.00264725 to 0.00264725
Heightened Def Con from 0.00264725 ++to 0.00264726
Heightened Def Con from 0.00264726 to 0.00264726
Heightened Def Con from 0.00264726 to 0.00264726
Heightened Def Con from 0.00264726 to 0.00264726
Heightened Def Con from 0.00264726 to 0.00264726
Heightened Def Con from 0.00264726 to 0.00264726
Heightened Def Con from 0.00264726 +to 0.00264726
Heightened Def Con from 0.00264726 to 0.00264727
Heightened Def Con from 0.00264727 to 0.00264727
Heightened Def Con from 0.00264727 +++to 0.00264727
Heightened Def Con from 0.00264727 to 0.00264727
Heightened Def Con from 0.00264727 to 0.00264727
Heightened Def Con from 0.00264727 to 0.00264727
Heightened Def Con from 0.00264727 to 0.00264727
Heightened Def Con from 0.00264727 +to 0.00264727
Heightened Def Con from 0.00264727 to 0.00264728
Heightened Def Con from 0.00264728 to 0.00264728
Heightened Def Con from 0.00264728 to 0.00264728
Heightened Def Con from 0.00264728 to 0.00264728
Heightened Def Con from 0.00264728 ++to 0.00264728
Heightened Def Con from 0.00264728 ++to 0.00264728
Heightened Def Con from 0.00264728 to 0.00264728
Heightened Def Con from 0.00264728 to 0.00264728
Heightened Def Con from 0.00264728 to 0.00264728
Heightened Def Con from 0.00264728 +++++++++++++++++++++++to 0.00264728
Heightened Def Con from 0.00264728 +++++++++++++++++++to 0.00264729
Heightened Def Con from 0.00264729 ++++++to 0.00264729
Heightened Def Con from 0.00264729 ++to 0.00264729
Heightened Def Con from 0.00264729 +to 0.00264729
Heightened Def Con from 0.00264729 to 0.00264729
Heightened Def Con from 0.00264729 to 0.00264729
Heightened Def Con from 0.00264729 +++++++++++to 0.00264729
Heightened Def Con from 0.00264729 +to 0.0026473
Heightened Def Con from 0.0026473 to 0.0026473
Heightened Def Con from 0.0026473 +to 0.0026473
Heightened Def Con from 0.0026473 +to 0.0026473
Heightened Def Con from 0.0026473 +to 0.0026473
Heightened Def Con from 0.0026473 +to 0.0026473
Heightened Def Con from 0.0026473 ++++++++++++++++++to 0.0026473
Heightened Def Con from 0.0026473 +++++++to 0.0026473
Heightened Def Con from 0.0026473 +to 0.0026473
Heightened Def Con from 0.0026473 +to 0.00264731
Heightened Def Con from 0.00264731 +to 0.00264731
Heightened Def Con from 0.00264731 to 0.00264731
Heightened Def Con from 0.00264731 ++to 0.00264731
Heightened Def Con from 0.00264731 ++to 0.00264731
Heightened Def Con from 0.00264731 +to 0.00264731
Heightened Def Con from 0.00264731 to 0.00264732
Heightened Def Con from 0.00264732 to 0.00264732
Heightened Def Con from 0.00264732 +to 0.00264732
Heightened Def Con from 0.00264732 to 0.00264732
Heightened Def Con from 0.00264732 to 0.00264732
Heightened Def Con from 0.00264732 +++to 0.00264732
Heightened Def Con from 0.00264732 +++++++++++++++++++++++to 0.00264732
Heightened Def Con from 0.00264732 +++++++++++++++++++to 0.00264733
Heightened Def Con from 0.00264733 ++++++to 0.00264733
Heightened Def Con from 0.00264733 to 0.00264733
Heightened Def Con from 0.00264733 ++++++++++++++++++to 0.00264733
Heightened Def Con from 0.00264733 ++++++to 0.00264733
Heightened Def Con from 0.00264733 +to 0.00264733
Heightened Def Con from 0.00264733 +to 0.00264733
Heightened Def Con from 0.00264733 +to 0.00264733
Heightened Def Con from 0.00264733 to 0.00264733
Heightened Def Con from 0.00264733 to 0.00264734
Heightened Def Con from 0.00264734 +to 0.00264734
Heightened Def Con from 0.00264734 to 0.00264734
Heightened Def Con from 0.00264734 +to 0.00264734
Heightened Def Con from 0.00264734 ++to 0.00264734
Heightened Def Con from 0.00264734 ++to 0.00264734
Heightened Def Con from 0.00264734 +to 0.00264734
Heightened Def Con from 0.00264734 to 0.00264734
Heightened Def Con from 0.00264734 +to 0.00264735
Heightened Def Con from 0.00264735 +to 0.00264735
Heightened Def Con from 0.00264735 ++to 0.00264735
Heightened Def Con from 0.00264735 to 0.00264735
Heightened Def Con from 0.00264735 +to 0.00264735
Heightened Def Con from 0.00264735 to 0.00264735
Heightened Def Con from 0.00264735 to 0.00264735
Heightened Def Con from 0.00264735 to 0.00264735
Heightened Def Con from 0.00264735 +++++++++++++++++++++++to 0.00264735
Heightened Def Con from 0.00264735 +++++++++++++++++++to 0.00264736
Heightened Def Con from 0.00264736 ++++++to 0.00264736
Heightened Def Con from 0.00264736 +to 0.00264736
Heightened Def Con from 0.00264736 to 0.00264736
Heightened Def Con from 0.00264736 +to 0.00264736
Heightened Def Con from 0.00264736 to 0.00264736
Heightened Def Con from 0.00264736 to 0.00264736
Heightened Def Con from 0.00264736 +to 0.00264736
Heightened Def Con from 0.00264736 +to 0.00264736
Heightened Def Con from 0.00264736 ++++++++++++++++++to 0.00264737
Heightened Def Con from 0.00264737 +++++++++to 0.00264737
Heightened Def Con from 0.00264737 +to 0.00264737
Heightened Def Con from 0.00264737 ++to 0.00264737
Heightened Def Con from 0.00264737 to 0.00264737
Heightened Def Con from 0.00264737 +to 0.00264737
Heightened Def Con from 0.00264737 to 0.00264737
Heightened Def Con from 0.00264737 +++++++++++++++++++++++to 0.00264738
Heightened Def Con from 0.00264738 +++++++++++++++++++to 0.00264738
Heightened Def Con from 0.00264738 ++++++to 0.00264738
Heightened Def Con from 0.00264738 ++++to 0.00264738
Heightened Def Con from 0.00264738 +to 0.00264738
Heightened Def Con from 0.00264738 +to 0.00264738
Heightened Def Con from 0.00264738 to 0.00264738
Heightened Def Con from 0.00264738 ++to 0.00264739
Heightened Def Con from 0.00264739 +to 0.00264739
Heightened Def Con from 0.00264739 +to 0.00264739
Heightened Def Con from 0.00264739 +to 0.00264739
Heightened Def Con from 0.00264739 to 0.00264739
Heightened Def Con from 0.00264739 to 0.00264739
Heightened Def Con from 0.00264739 to 0.0026474
Heightened Def Con from 0.0026474 to 0.0026474
Heightened Def Con from 0.0026474 to 0.0026474
Heightened Def Con from 0.0026474 +to 0.0026474
Heightened Def Con from 0.0026474 +to 0.0026474
Heightened Def Con from 0.0026474 to 0.0026474
Heightened Def Con from 0.0026474 +++++++++++++++to 0.0026474
Heightened Def Con from 0.0026474 ++++to 0.0026474
Heightened Def Con from 0.0026474 +to 0.0026474
Heightened Def Con from 0.0026474 to 0.0026474
Heightened Def Con from 0.0026474 +++++++++++++++++++++to 0.0026474
Heightened Def Con from 0.0026474 +++++++++to 0.0026474
Heightened Def Con from 0.0026474 to 0.0026474
Heightened Def Con from 0.0026474 +to 0.00264741
Heightened Def Con from 0.00264741 +to 0.00264741
Heightened Def Con from 0.00264741 ++to 0.00264741
Heightened Def Con from 0.00264741 ++to 0.00264741
Heightened Def Con from 0.00264741 to 0.00264741
Heightened Def Con from 0.00264741 +to 0.00264741
Heightened Def Con from 0.00264741 to 0.00264741
Heightened Def Con from 0.00264741 to 0.00264741
Heightened Def Con from 0.00264741 +to 0.00264741
Heightened Def Con from 0.00264741 to 0.00264741
Heightened Def Con from 0.00264742 to 0.00264742
Heightened Def Con from 0.00264742 to 0.00264742
Heightened Def Con from 0.00264742 to 0.00264742
Heightened Def Con from 0.00264742 to 0.00264742
Heightened Def Con from 0.00264742 +to 0.00264742
Heightened Def Con from 0.00264742 +to 0.00264742
Heightened Def Con from 0.00264742 to 0.00264742
Heightened Def Con from 0.00264742 to 0.00264743
Heightened Def Con from 0.00264743 to 0.00264743
Heightened Def Con from 0.00264743 +to 0.00264743
Heightened Def Con from 0.00264743 +to 0.00264743
Heightened Def Con from 0.00264743 +to 0.00264743
Heightened Def Con from 0.00264743 +to 0.00264743
Heightened Def Con from 0.00264743 to 0.00264744
Heightened Def Con from 0.00264744 ++to 0.00264744
Heightened Def Con from 0.00264744 +to 0.00264744
Heightened Def Con from 0.00264744 +to 0.00264744
Heightened Def Con from 0.00264744 +to 0.00264744
Heightened Def Con from 0.00264744 to 0.00264744
Heightened Def Con from 0.00264744 +to 0.00264744
Heightened Def Con from 0.00264744 +to 0.00264744
Heightened Def Con from 0.00264744 +to 0.00264745
Heightened Def Con from 0.00264745 to 0.00264745
Heightened Def Con from 0.00264745 +to 0.00264745
Heightened Def Con from 0.00264745 +to 0.00264745
Heightened Def Con from 0.00264745 to 0.00264745
Heightened Def Con from 0.00264745 to 0.00264745
Heightened Def Con from 0.00264745 to 0.00264745
[...]
Heightened Def Con from 0.0183428 to 0.0183428
Heightened Def Con from 0.0183428 +to 0.0183428
Heightened Def Con from 0.0183428 to 0.0183428
Heightened Def Con from 0.0183428 +to 0.0183428
Heightened Def Con from 0.0183428 +to 0.0183428
Heightened Def Con from 0.0183428 to 0.0183428
Heightened Def Con from 0.0183428 +to 0.0183428
Heightened Def Con from 0.0183428 +to 0.0183428
Heightened Def Con from 0.0183428 to 0.0183428
Heightened Def Con from 0.0183428 to 0.0183428
Heightened Def Con from 0.0183428 ++to 0.0183428
Heightened Def Con from 0.0183428 to 0.0183428
Heightened Def Con from 0.0183428 +to 0.0183428
Heightened Def Con from 0.0183428 +to 0.0183428
Heightened Def Con from 0.0183428 to 0.0183428
Heightened Def Con from 0.0183428 to 0.0183428
Heightened Def Con from 0.0183428 +++to 0.0183428
Heightened Def Con from 0.0183428 +to 0.0183428
Heightened Def Con from 0.0183428 to 0.0183428
Heightened Def Con from 0.0183428 to 0.0183428
Heightened Def Con from 0.0183428 to 0.0183428
Heightened Def Con from 0.0183428 to 0.0183428
Heightened Def Con from 0.0183428 +to 0.0183428
Heightened Def Con from 0.0183428 to 0.0183428
Heightened Def Con from 0.0183428 to 0.0183428
Heightened Def Con from 0.0183428 to 0.0183428
Heightened Def Con from 0.0183428 +to 0.0183428
Heightened Def Con from 0.0183428 +to 0.0183428
Heightened Def Con from 0.0183428 to 0.0183428
Heightened Def Con from 0.0183428 +to 0.0183428
Heightened Def Con from 0.0183428 +to 0.0183428
Heightened Def Con from 0.0183428 to 0.0183428
Heightened Def Con from 0.0183428 to 0.0183428
Heightened Def Con from 0.0183428 ++to 0.0183428
Heightened Def Con from 0.0183428 to 0.0183428
Heightened Def Con from 0.0183428 to 0.0183428
Heightened Def Con from 0.0183428 to 0.0183428
Heightened Def Con from 0.0183428 +to 0.0183428
Heightened Def Con from 0.0183428 to 0.0183428
Heightened Def Con from 0.0183428 to 0.0183428
Heightened Def Con from 0.0183428 +to 0.0183428
Heightened Def Con from 0.0183428 to 0.0183428
Heightened Def Con from 0.0183428 to 0.0183428
Heightened Def Con from 0.0183428 to 0.0183428
Heightened Def Con from 0.0183428 to 0.0183428
Heightened Def Con from 0.0183428 +to 0.0183428
Heightened Def Con from 0.0183428 to 0.0183428
Heightened Def Con from 0.0183429 to 0.0183429
Heightened Def Con from 0.0183429 to 0.0183429
Heightened Def Con from 0.0183429 +to 0.0183429
Heightened Def Con from 0.0183429 +to 0.0183429
Heightened Def Con from 0.0183429 to 0.0183429
Heightened Def Con from 0.0183429 ++to 0.0183429
Heightened Def Con from 0.0183429 +++to 0.0183429
Heightened Def Con from 0.0183429 ++to 0.0183429
Heightened Def Con from 0.0183429 to 0.0183429
Heightened Def Con from 0.0183429 +to 0.0183429
Heightened Def Con from 0.0183429 +to 0.0183429
Heightened Def Con from 0.0183429 +to 0.0183429
Heightened Def Con from 0.0183429 ++to 0.0183429
Heightened Def Con from 0.0183429 to 0.0183429
Heightened Def Con from 0.0183429 to 0.0183429
Heightened Def Con from 0.0183429 to 0.0183429
Heightened Def Con from 0.0183429 ++to 0.0183429
Heightened Def Con from 0.0183429 to 0.0183429
Heightened Def Con from 0.0183429 +to 0.0183429
Heightened Def Con from 0.0183429 +to 0.0183429
Heightened Def Con from 0.0183429 to 0.0183429
Heightened Def Con from 0.0183429 to 0.0183429
Heightened Def Con from 0.0183429 to 0.0183429
Heightened Def Con from 0.0183429 to 0.0183429
Heightened Def Con from 0.0183429 to 0.0183429
Heightened Def Con from 0.0183429 +to 0.0183429
Heightened Def Con from 0.0183429 to 0.0183429
Heightened Def Con from 0.0183429 +to 0.0183429
Heightened Def Con from 0.0183429 to 0.0183429
Heightened Def Con from 0.0183429 to 0.0183429
Heightened Def Con from 0.0183429 to 0.0183429
Heightened Def Con from 0.0183429 to 0.0183429
Heightened Def Con from 0.0183429 +to 0.0183429
Heightened Def Con from 0.0183429 to 0.0183429
Heightened Def Con from 0.0183429 ++to 0.0183429
Heightened Def Con from 0.0183429 to 0.0183429
Heightened Def Con from 0.0183429 to 0.0183429
Heightened Def Con from 0.0183429 +to 0.0183429
Heightened Def Con from 0.0183429 +to 0.0183429
Heightened Def Con from 0.0183429 +to 0.0183429
Heightened Def Con from 0.0183429 ++to 0.0183429
Heightened Def Con from 0.0183429 to 0.0183429
Heightened Def Con from 0.0183429 to 0.0183429
Heightened Def Con from 0.0183429 to 0.0183429
Heightened Def Con from 0.0183429 +to 0.0183429
Heightened Def Con from 0.0183429 ++++to 0.0183429
Heightened Def Con from 0.0183429 to 0.0183429
Heightened Def Con from 0.0183429 to 0.0183429
Heightened Def Con from 0.0183429 to 0.0183429
Heightened Def Con from 0.0183429 to 0.0183429
Heightened Def Con from 0.0183429 +++++++++++++++++++++++to 0.0183429
Heightened Def Con from 0.0183429 +++++++++++++++++++to 0.0183429
Heightened Def Con from 0.0183429 ++++++to 0.0183429
Heightened Def Con from 0.0183429 to 0.0183429
Heightened Def Con from 0.0183429 +to 0.0183429
Heightened Def Con from 0.0183429 to 0.0183429
Heightened Def Con from 0.0183429 +to 0.0183429
Heightened Def Con from 0.0183429 +to 0.0183429
Heightened Def Con from 0.0183429 to 0.0183429
Heightened Def Con from 0.0183429 ++to 0.0183429
Heightened Def Con from 0.0183429 +to 0.0183429
Heightened Def Con from 0.0183429 ++++to 0.0183429
Heightened Def Con from 0.0183429 +to 0.0183429
Heightened Def Con from 0.0183429 to 0.0183429
Heightened Def Con from 0.0183429 to 0.0183429
Heightened Def Con from 0.0183429 to 0.0183429
Heightened Def Con from 0.0183429 ++to 0.0183429
Heightened Def Con from 0.0183429 +to 0.018343
Heightened Def Con from 0.018343 to 0.018343
Heightened Def Con from 0.018343 +to 0.018343
Heightened Def Con from 0.018343 +to 0.018343
Heightened Def Con from 0.018343 +to 0.018343
Heightened Def Con from 0.018343 to 0.018343
Heightened Def Con from 0.018343 +to 0.018343
Heightened Def Con from 0.018343 to 0.018343
Heightened Def Con from 0.018343 +to 0.018343
Heightened Def Con from 0.018343 to 0.018343
Heightened Def Con from 0.018343 +to 0.018343
Heightened Def Con from 0.018343 to 0.018343
Heightened Def Con from 0.018343 to 0.018343
Heightened Def Con from 0.018343 to 0.018343
Heightened Def Con from 0.018343 to 0.018343
Heightened Def Con from 0.018343 to 0.018343
Heightened Def Con from 0.018343 +to 0.018343
Heightened Def Con from 0.018343 to 0.018343
Heightened Def Con from 0.018343 to 0.018343
Heightened Def Con from 0.018343 ++to 0.018343
Heightened Def Con from 0.018343 to 0.018343
Heightened Def Con from 0.018343 +++to 0.018343
Heightened Def Con from 0.018343 to 0.018343
Heightened Def Con from 0.018343 to 0.018343
Heightened Def Con from 0.018343 to 0.018343
Heightened Def Con from 0.018343 to 0.018343
Heightened Def Con from 0.018343 +to 0.018343
Heightened Def Con from 0.018343 to 0.018343
Heightened Def Con from 0.018343 to 0.018343
Heightened Def Con from 0.018343 to 0.018343
Heightened Def Con from 0.018343 +to 0.018343
Heightened Def Con from 0.018343 +to 0.018343
Heightened Def Con from 0.018343 to 0.018343
Heightened Def Con from 0.018343 to 0.018343
Heightened Def Con from 0.018343 ++to 0.018343
Heightened Def Con from 0.018343 +to 0.018343
Heightened Def Con from 0.018343 to 0.018343
Heightened Def Con from 0.018343 ++++++++++++++++++to 0.018343
Heightened Def Con from 0.018343 ++++++++++++++++++to 0.018343
Heightened Def Con from 0.018343 ++++++++++to 0.018343
Heightened Def Con from 0.018343 +to 0.018343
Heightened Def Con from 0.018343 to 0.018343
Heightened Def Con from 0.018343 to 0.018343
Heightened Def Con from 0.018343 to 0.018343
Heightened Def Con from 0.018343 +++to 0.018343
Heightened Def Con from 0.018343 to 0.018343
Heightened Def Con from 0.018343 to 0.018343
Heightened Def Con from 0.018343 to 0.018343
Heightened Def Con from 0.018343 to 0.018343
Heightened Def Con from 0.018343 +to 0.018343
Heightened Def Con from 0.018343 to 0.018343
Heightened Def Con from 0.018343 +to 0.018343
Heightened Def Con from 0.018343 +to 0.018343
Heightened Def Con from 0.018343 to 0.018343
Heightened Def Con from 0.018343 +++to 0.018343
Heightened Def Con from 0.018343 +to 0.018343
Heightened Def Con from 0.018343 +to 0.018343
Heightened Def Con from 0.018343 to 0.018343
Heightened Def Con from 0.018343 +to 0.018343
Heightened Def Con from 0.018343 +to 0.018343
Heightened Def Con from 0.018343 to 0.018343
Heightened Def Con from 0.018343 +to 0.018343
Heightened Def Con from 0.018343 +to 0.018343
Heightened Def Con from 0.018343 to 0.018343
Heightened Def Con from 0.018343 to 0.018343
Heightened Def Con from 0.018343 to 0.018343
Heightened Def Con from 0.018343 ++to 0.018343
Heightened Def Con from 0.018343 +to 0.018343
Heightened Def Con from 0.018343 to 0.018343
Heightened Def Con from 0.018343 +to 0.018343
Heightened Def Con from 0.018343 to 0.018343
Heightened Def Con from 0.018343 ++to 0.018343
Heightened Def Con from 0.018343 +to 0.018343
Heightened Def Con from 0.018343 to 0.018343
Heightened Def Con from 0.018343 to 0.018343
Heightened Def Con from 0.018343 to 0.018343
Heightened Def Con from 0.018343 to 0.018343
Heightened Def Con from 0.018343 +to 0.018343
Heightened Def Con from 0.018343 ++to 0.0183431
Heightened Def Con from 0.0183431 to 0.0183431
Heightened Def Con from 0.0183431 +to 0.0183431
Heightened Def Con from 0.0183431 to 0.0183431
Heightened Def Con from 0.0183431 to 0.0183431
Heightened Def Con from 0.0183431 ++to 0.0183431
Heightened Def Con from 0.0183431 ++to 0.0183431
Heightened Def Con from 0.0183431 to 0.0183431
Heightened Def Con from 0.0183431 +to 0.0183431
Heightened Def Con from 0.0183431 to 0.0183431
Heightened Def Con from 0.0183431 to 0.0183431
Heightened Def Con from 0.0183431 +to 0.0183431
Heightened Def Con from 0.0183431 to 0.0183431
Heightened Def Con from 0.0183431 to 0.0183431
Heightened Def Con from 0.0183431 to 0.0183431
Heightened Def Con from 0.0183431 +to 0.0183431
Heightened Def Con from 0.0183431 +to 0.0183431
Heightened Def Con from 0.0183431 +to 0.0183431
Heightened Def Con from 0.0183431 +to 0.0183431
Heightened Def Con from 0.0183431 +to 0.0183431
Heightened Def Con from 0.0183431 +to 0.0183431
Heightened Def Con from 0.0183431 to 0.0183431
Heightened Def Con from 0.0183431 +to 0.0183431
Heightened Def Con from 0.0183431 to 0.0183431
Heightened Def Con from 0.0183431 +to 0.0183431
Heightened Def Con from 0.0183431 to 0.0183431
Heightened Def Con from 0.0183431 to 0.0183431
Heightened Def Con from 0.0183431 to 0.0183431
Heightened Def Con from 0.0183431 ++to 0.0183431
Heightened Def Con from 0.0183431 +++to 0.0183431
Heightened Def Con from 0.0183431 +++to 0.0183431
Heightened Def Con from 0.0183431 to 0.0183431
Heightened Def Con from 0.0183431 +to 0.0183431
Heightened Def Con from 0.0183431 to 0.0183431
Heightened Def Con from 0.0183431 to 0.0183431
Heightened Def Con from 0.0183431 ++to 0.0183431
Heightened Def Con from 0.0183431 ++to 0.0183431
Heightened Def Con from 0.0183431 to 0.0183431
Heightened Def Con from 0.0183431 +to 0.0183431
Heightened Def Con from 0.0183431 to 0.0183431
Heightened Def Con from 0.0183431 to 0.0183431
Heightened Def Con from 0.0183431 ++to 0.0183431
Heightened Def Con from 0.0183431 +to 0.0183431
Heightened Def Con from 0.0183431 to 0.0183431
Heightened Def Con from 0.0183431 to 0.0183431
Heightened Def Con from 0.0183431 to 0.0183431
Heightened Def Con from 0.0183431 to 0.0183431
Heightened Def Con from 0.0183431 +to 0.0183431
Heightened Def Con from 0.0183431 +to 0.0183431
Heightened Def Con from 0.0183431 +to 0.0183431
Heightened Def Con from 0.0183431 +to 0.0183431
Heightened Def Con from 0.0183431 to 0.0183431
Heightened Def Con from 0.0183431 to 0.0183431
Heightened Def Con from 0.0183431 to 0.0183431
Heightened Def Con from 0.0183431 +to 0.0183431
Heightened Def Con from 0.0183431 +++to 0.0183431
Heightened Def Con from 0.0183431 to 0.0183431
Heightened Def Con from 0.0183431 +to 0.0183431
Heightened Def Con from 0.0183431 to 0.0183431
Heightened Def Con from 0.0183431 to 0.0183431
Heightened Def Con from 0.0183431 +to 0.0183431
Heightened Def Con from 0.0183431 +to 0.0183431
Heightened Def Con from 0.0183431 ++to 0.0183431
Heightened Def Con from 0.0183431 to 0.0183431
Heightened Def Con from 0.0183431 to 0.0183431
Heightened Def Con from 0.0183431 to 0.0183431
Heightened Def Con from 0.0183431 to 0.0183431
Heightened Def Con from 0.0183431 +to 0.0183431
Heightened Def Con from 0.0183431 +to 0.0183431
Heightened Def Con from 0.0183431 ++++to 0.0183431
Heightened Def Con from 0.0183431 to 0.0183431
Heightened Def Con from 0.0183431 to 0.0183431
Heightened Def Con from 0.0183431 ++to 0.0183431
Heightened Def Con from 0.0183431 ++to 0.0183431
Heightened Def Con from 0.0183431 to 0.0183431
Heightened Def Con from 0.0183431 +to 0.0183431
Heightened Def Con from 0.0183432 +to 0.0183432
Heightened Def Con from 0.0183432 to 0.0183432
Heightened Def Con from 0.0183432 to 0.0183432
Heightened Def Con from 0.0183432 ++to 0.0183432
Heightened Def Con from 0.0183432 to 0.0183432
Heightened Def Con from 0.0183432 +to 0.0183432
Heightened Def Con from 0.0183432 ++to 0.0183432
Heightened Def Con from 0.0183432 to 0.0183432
Heightened Def Con from 0.0183432 +to 0.0183432
Heightened Def Con from 0.0183432 ++to 0.0183432
Heightened Def Con from 0.0183432 to 0.0183432
Heightened Def Con from 0.0183432 to 0.0183432
Heightened Def Con from 0.0183432 +to 0.0183432
Heightened Def Con from 0.0183432 +to 0.0183432
Heightened Def Con from 0.0183432 to 0.0183432
Heightened Def Con from 0.0183432 to 0.0183432
Heightened Def Con from 0.0183432 +to 0.0183432
Heightened Def Con from 0.0183432 +to 0.0183432
Heightened Def Con from 0.0183432 to 0.0183432
Heightened Def Con from 0.0183432 ++to 0.0183432
Heightened Def Con from 0.0183432 +to 0.0183432
Heightened Def Con from 0.0183432 ++to 0.0183432
Heightened Def Con from 0.0183432 to 0.0183432
Heightened Def Con from 0.0183432 to 0.0183432
Heightened Def Con from 0.0183432 to 0.0183432
Heightened Def Con from 0.0183432 to 0.0183432
Heightened Def Con from 0.0183432 to 0.0183432
Heightened Def Con from 0.0183432 +to 0.0183432
Heightened Def Con from 0.0183432 to 0.0183432
Heightened Def Con from 0.0183432 +to 0.0183432
Heightened Def Con from 0.0183432 to 0.0183432
Heightened Def Con from 0.0183432 to 0.0183432
Heightened Def Con from 0.0183432 to 0.0183432
Heightened Def Con from 0.0183432 to 0.0183432
Heightened Def Con from 0.0183432 ++to 0.0183432
Heightened Def Con from 0.0183432 +to 0.0183432
Heightened Def Con from 0.0183432 +to 0.0183432
Heightened Def Con from 0.0183432 +to 0.0183432
Heightened Def Con from 0.0183432 +to 0.0183432
Heightened Def Con from 0.0183432 to 0.0183432
Heightened Def Con from 0.0183432 +to 0.0183432
Heightened Def Con from 0.0183432 +to 0.0183432
Heightened Def Con from 0.0183432 ++to 0.0183432
Heightened Def Con from 0.0183432 to 0.0183432
Heightened Def Con from 0.0183432 +++to 0.0183432
Heightened Def Con from 0.0183432 to 0.0183432
Heightened Def Con from 0.0183432 to 0.0183432
Heightened Def Con from 0.0183432 ++to 0.0183432
Heightened Def Con from 0.0183432 to 0.0183432
Heightened Def Con from 0.0183432 to 0.0183432
Heightened Def Con from 0.0183432 ++to 0.0183432
Heightened Def Con from 0.0183432 to 0.0183432
Heightened Def Con from 0.0183432 to 0.0183432
Heightened Def Con from 0.0183432 +to 0.0183432
Heightened Def Con from 0.0183432 +to 0.0183432
Heightened Def Con from 0.0183432 to 0.0183432
Heightened Def Con from 0.0183432 to 0.0183432
Heightened Def Con from 0.0183432 to 0.0183432
Heightened Def Con from 0.0183432 to 0.0183432
Heightened Def Con from 0.0183432 to 0.0183432
Heightened Def Con from 0.0183432 to 0.0183432
Heightened Def Con from 0.0183432 ++to 0.0183432
Heightened Def Con from 0.0183432 to 0.0183432
Heightened Def Con from 0.0183432 +to 0.0183432
Heightened Def Con from 0.0183432 to 0.0183432
Heightened Def Con from 0.0183432 to 0.0183432
Heightened Def Con from 0.0183432 to 0.0183432
Heightened Def Con from 0.0183432 to 0.0183432
Heightened Def Con from 0.0183432 +++++++++++to 0.0183432
Heightened Def Con from 0.0183432 +to 0.0183432
Heightened Def Con from 0.0183432 to 0.0183432
Heightened Def Con from 0.0183432 to 0.0183432
Heightened Def Con from 0.0183432 +to 0.0183432
Heightened Def Con from 0.0183432 +to 0.0183432
Heightened Def Con from 0.0183432 to 0.0183432
Heightened Def Con from 0.0183432 to 0.0183433
Heightened Def Con from 0.0183433 to 0.0183433
Heightened Def Con from 0.0183433 to 0.0183433
Heightened Def Con from 0.0183433 +to 0.0183433
Heightened Def Con from 0.0183433 ++to 0.0183433
Heightened Def Con from 0.0183433 ++to 0.0183433
Heightened Def Con from 0.0183433 to 0.0183433
Heightened Def Con from 0.0183433 +to 0.0183433
Heightened Def Con from 0.0183433 to 0.0183433
Heightened Def Con from 0.0183433 to 0.0183433
Heightened Def Con from 0.0183433 +++++++++++++++++++++++to 0.0183433
Heightened Def Con from 0.0183433 +++++++++++++++++++to 0.0183433
Heightened Def Con from 0.0183433 +++++++to 0.0183433
Heightened Def Con from 0.0183433 ++to 0.0183433
Heightened Def Con from 0.0183433 ++++++++++++++++++++++to 0.0183433
Heightened Def Con from 0.0183433 ++++++++to 0.0183433
Heightened Def Con from 0.0183433 to 0.0183433
Heightened Def Con from 0.0183433 to 0.0183433
Heightened Def Con from 0.0183433 +to 0.0183433
Heightened Def Con from 0.0183433 +to 0.0183433
Heightened Def Con from 0.0183433 to 0.0183433
Heightened Def Con from 0.0183433 to 0.0183433
Heightened Def Con from 0.0183433 +to 0.0183433
Heightened Def Con from 0.0183433 to 0.0183433
Heightened Def Con from 0.0183433 +to 0.0183433
Heightened Def Con from 0.0183433 to 0.0183433
Heightened Def Con from 0.0183433 to 0.0183433
Heightened Def Con from 0.0183433 ++to 0.0183433
Heightened Def Con from 0.0183433 to 0.0183433
Heightened Def Con from 0.0183433 +++++++++++++++++++++++to 0.0183433
Heightened Def Con from 0.0183433 +++++++++++++++++++to 0.0183433
Heightened Def Con from 0.0183433 ++++++to 0.0183433
Heightened Def Con from 0.0183433 +to 0.0183433
Heightened Def Con from 0.0183433 +to 0.0183433
Heightened Def Con from 0.0183433 +to 0.0183433
Heightened Def Con from 0.0183433 +to 0.0183433
Heightened Def Con from 0.0183433 +to 0.0183433
Heightened Def Con from 0.0183433 +to 0.0183433
Heightened Def Con from 0.0183433 to 0.0183433
Heightened Def Con from 0.0183433 +to 0.0183433
Heightened Def Con from 0.0183433 +++++++++++++++++++++++to 0.0183433
Heightened Def Con from 0.0183433 +++++++++++++++++++to 0.0183433
Heightened Def Con from 0.0183433 ++++++to 0.0183433
Heightened Def Con from 0.0183433 to 0.0183433
Heightened Def Con from 0.0183433 +to 0.0183433
Heightened Def Con from 0.0183433 to 0.0183433
Heightened Def Con from 0.0183433 +to 0.0183433
Heightened Def Con from 0.0183433 to 0.0183433
Heightened Def Con from 0.0183433 ++to 0.0183433
Heightened Def Con from 0.0183433 +to 0.0183433
Heightened Def Con from 0.0183433 ++to 0.0183433
Heightened Def Con from 0.0183433 +to 0.0183433
Heightened Def Con from 0.0183433 to 0.0183433
Heightened Def Con from 0.0183433 +to 0.0183433
Heightened Def Con from 0.0183433 to 0.0183433
Heightened Def Con from 0.0183433 to 0.0183433
Heightened Def Con from 0.0183433 +to 0.0183433
Heightened Def Con from 0.0183433 +to 0.0183433
Heightened Def Con from 0.0183433 to 0.0183433
Heightened Def Con from 0.0183433 +to 0.0183433
Heightened Def Con from 0.0183433 +to 0.0183433
Heightened Def Con from 0.0183433 +to 0.0183433
Heightened Def Con from 0.0183433 +++++++++++++++++++++++to 0.0183433
Heightened Def Con from 0.0183433 +++++++++++++++++++to 0.0183433
Heightened Def Con from 0.0183433 ++++++to 0.0183433
Heightened Def Con from 0.0183433 ++to 0.0183433
Heightened Def Con from 0.0183433 +to 0.0183433
Heightened Def Con from 0.0183433 to 0.0183433
Heightened Def Con from 0.0183433 +++to 0.0183433
Heightened Def Con from 0.0183433 +to 0.0183433
Heightened Def Con from 0.0183433 ++to 0.0183433
Heightened Def Con from 0.0183433 to 0.0183433
Total elapsed time: 126.330 seconds.

